/*---------------------------------------------------------------------------*\
| =========                 |                                                 |
| \\      /  F ield         | OpenFOAM: The Open Source CFD Toolbox           |
|  \\    /   O peration     | Version:  2.4.0                                 |
|   \\  /    A nd           | Web:      www.OpenFOAM.org                      |
|    \\/     M anipulation  |                                                 |
\*---------------------------------------------------------------------------*/
Build  : 2.4.0-851fdf87892f
Exec   : icoFoam
Date   : Dec 07 2017
Time   : 14:51:13
Host   : "Tsukasa-no-MacBook-Pro-2.local"
PID    : 23297
Case   : /Users/hori/git/project
nProcs : 1
sigFpe : Enabling floating point exception trapping (FOAM_SIGFPE).
fileModificationChecking : Monitoring run-time modified files using timeStampMaster
allowSystemOperations : Allowing user-supplied system call operations

// * * * * * * * * * * * * * * * * * * * * * * * * * * * * * * * * * * * * * //
Create time

Create mesh for time = 0

Reading transportProperties

Reading field p

Reading field U

Reading/calculating face flux field phi


Starting time loop

Time = 1e-06

Courant Number mean: 2.74246e-07 max: 0.0005
smoothSolver:  Solving for Ux, Initial residual = 1, Final residual = 9.06753e-06, No Iterations 7
smoothSolver:  Solving for Uy, Initial residual = 0, Final residual = 0, No Iterations 0
DICPCG:  Solving for p, Initial residual = 1, Final residual = 8.78554e-07, No Iterations 202
time step continuity errors : sum local = 4.81879e-13, global = -4.09928e-15, cumulative = -4.09928e-15
DICPCG:  Solving for p, Initial residual = 0.00442519, Final residual = 9.48653e-07, No Iterations 175
time step continuity errors : sum local = 1.06456e-10, global = -3.17887e-13, cumulative = -3.21986e-13
ExecutionTime = 1.58 s  ClockTime = 2 s

Time = 2e-06

Courant Number mean: 0.00012953 max: 0.00594794
smoothSolver:  Solving for Ux, Initial residual = 0.799869, Final residual = 8.2869e-06, No Iterations 7
smoothSolver:  Solving for Uy, Initial residual = 0.27932, Final residual = 2.54169e-06, No Iterations 7
DICPCG:  Solving for p, Initial residual = 0.0152764, Final residual = 8.47468e-07, No Iterations 182
time step continuity errors : sum local = 4.19923e-11, global = 3.49753e-13, cumulative = 2.7767e-14
DICPCG:  Solving for p, Initial residual = 0.00833117, Final residual = 9.45898e-07, No Iterations 178
time step continuity errors : sum local = 5.51011e-11, global = -1.37817e-13, cumulative = -1.1005e-13
ExecutionTime = 2.33 s  ClockTime = 2 s

Time = 3e-06

Courant Number mean: 0.000144811 max: 0.00582512
smoothSolver:  Solving for Ux, Initial residual = 0.179518, Final residual = 8.89999e-06, No Iterations 6
smoothSolver:  Solving for Uy, Initial residual = 0.0253201, Final residual = 6.79908e-06, No Iterations 5
DICPCG:  Solving for p, Initial residual = 0.035226, Final residual = 9.87332e-07, No Iterations 170
time step continuity errors : sum local = 4.04464e-12, global = 8.27224e-14, cumulative = -2.73279e-14
DICPCG:  Solving for p, Initial residual = 0.0145595, Final residual = 9.76769e-07, No Iterations 163
time step continuity errors : sum local = 3.79214e-12, global = -9.17201e-14, cumulative = -1.19048e-13
ExecutionTime = 3.07 s  ClockTime = 3 s

Time = 4e-06

Courant Number mean: 0.000154693 max: 0.00584202
smoothSolver:  Solving for Ux, Initial residual = 0.16281, Final residual = 8.3118e-06, No Iterations 6
smoothSolver:  Solving for Uy, Initial residual = 0.0233703, Final residual = 6.41516e-06, No Iterations 5
DICPCG:  Solving for p, Initial residual = 0.0124986, Final residual = 9.52811e-07, No Iterations 161
time step continuity errors : sum local = 3.81212e-12, global = -9.88147e-14, cumulative = -2.17863e-13
DICPCG:  Solving for p, Initial residual = 0.00416824, Final residual = 9.42513e-07, No Iterations 157
time step continuity errors : sum local = 3.72766e-12, global = 7.29388e-14, cumulative = -1.44924e-13
ExecutionTime = 3.89 s  ClockTime = 4 s

Time = 5e-06

Courant Number mean: 0.000164603 max: 0.00590949
smoothSolver:  Solving for Ux, Initial residual = 0.153246, Final residual = 7.87345e-06, No Iterations 6
smoothSolver:  Solving for Uy, Initial residual = 0.0216548, Final residual = 5.92856e-06, No Iterations 5
DICPCG:  Solving for p, Initial residual = 0.00621489, Final residual = 9.39502e-07, No Iterations 154
time step continuity errors : sum local = 3.70378e-12, global = -7.09414e-14, cumulative = -2.15865e-13
DICPCG:  Solving for p, Initial residual = 0.00130763, Final residual = 8.78194e-07, No Iterations 151
time step continuity errors : sum local = 3.44196e-12, global = 1.8658e-14, cumulative = -1.97207e-13
ExecutionTime = 4.56 s  ClockTime = 5 s

Time = 6e-06

Courant Number mean: 0.000174452 max: 0.00600391
smoothSolver:  Solving for Ux, Initial residual = 0.145731, Final residual = 7.51636e-06, No Iterations 6
smoothSolver:  Solving for Uy, Initial residual = 0.0203238, Final residual = 5.55981e-06, No Iterations 5
DICPCG:  Solving for p, Initial residual = 0.00459197, Final residual = 8.40657e-07, No Iterations 152
time step continuity errors : sum local = 3.28964e-12, global = -8.01245e-14, cumulative = -2.77332e-13
DICPCG:  Solving for p, Initial residual = 0.00083122, Final residual = 9.56342e-07, No Iterations 147
time step continuity errors : sum local = 3.69359e-12, global = -1.71296e-14, cumulative = -2.94461e-13
ExecutionTime = 5.58 s  ClockTime = 6 s

Time = 7e-06

Courant Number mean: 0.000184212 max: 0.00609813
smoothSolver:  Solving for Ux, Initial residual = 0.138177, Final residual = 7.13594e-06, No Iterations 6
smoothSolver:  Solving for Uy, Initial residual = 0.0190076, Final residual = 5.1977e-06, No Iterations 5
DICPCG:  Solving for p, Initial residual = 0.00372429, Final residual = 8.95187e-07, No Iterations 148
time step continuity errors : sum local = 3.4575e-12, global = -4.57136e-14, cumulative = -3.40175e-13
DICPCG:  Solving for p, Initial residual = 0.000574596, Final residual = 9.72841e-07, No Iterations 142
time step continuity errors : sum local = 3.7219e-12, global = -4.17792e-14, cumulative = -3.81954e-13
ExecutionTime = 6.47 s  ClockTime = 7 s

Time = 8e-06

Courant Number mean: 0.000193881 max: 0.00619099
smoothSolver:  Solving for Ux, Initial residual = 0.131848, Final residual = 6.80985e-06, No Iterations 6
smoothSolver:  Solving for Uy, Initial residual = 0.0179155, Final residual = 4.89735e-06, No Iterations 5
DICPCG:  Solving for p, Initial residual = 0.00308707, Final residual = 8.44006e-07, No Iterations 147
time step continuity errors : sum local = 3.23171e-12, global = -3.82291e-14, cumulative = -4.20183e-13
DICPCG:  Solving for p, Initial residual = 0.000421318, Final residual = 9.71766e-07, No Iterations 140
time step continuity errors : sum local = 3.68505e-12, global = -2.60715e-14, cumulative = -4.46255e-13
ExecutionTime = 7.18 s  ClockTime = 7 s

Time = 9e-06

Courant Number mean: 0.000203476 max: 0.00628186
smoothSolver:  Solving for Ux, Initial residual = 0.126127, Final residual = 6.51048e-06, No Iterations 6
smoothSolver:  Solving for Uy, Initial residual = 0.0169483, Final residual = 4.63209e-06, No Iterations 5
DICPCG:  Solving for p, Initial residual = 0.00261572, Final residual = 9.33428e-07, No Iterations 146
time step continuity errors : sum local = 3.54684e-12, global = -2.96996e-14, cumulative = -4.75954e-13
DICPCG:  Solving for p, Initial residual = 0.000322858, Final residual = 9.39978e-07, No Iterations 137
time step continuity errors : sum local = 3.53944e-12, global = -3.66204e-14, cumulative = -5.12575e-13
ExecutionTime = 7.93 s  ClockTime = 8 s

Time = 1e-05

Courant Number mean: 0.000213006 max: 0.00637029
smoothSolver:  Solving for Ux, Initial residual = 0.120865, Final residual = 6.23346e-06, No Iterations 6
smoothSolver:  Solving for Uy, Initial residual = 0.0160863, Final residual = 4.39639e-06, No Iterations 5
DICPCG:  Solving for p, Initial residual = 0.00224691, Final residual = 8.47829e-07, No Iterations 146
time step continuity errors : sum local = 3.19963e-12, global = -3.68862e-14, cumulative = -5.49461e-13
DICPCG:  Solving for p, Initial residual = 0.000257364, Final residual = 9.09956e-07, No Iterations 137
time step continuity errors : sum local = 3.40374e-12, global = -9.43606e-15, cumulative = -5.58897e-13
ExecutionTime = 8.78 s  ClockTime = 9 s

Time = 1.1e-05

Courant Number mean: 0.000222475 max: 0.00645592
smoothSolver:  Solving for Ux, Initial residual = 0.115547, Final residual = 5.95402e-06, No Iterations 6
smoothSolver:  Solving for Uy, Initial residual = 0.0153086, Final residual = 4.18427e-06, No Iterations 5
DICPCG:  Solving for p, Initial residual = 0.00195073, Final residual = 9.58131e-07, No Iterations 145
time step continuity errors : sum local = 3.59311e-12, global = -3.04178e-14, cumulative = -5.89315e-13
DICPCG:  Solving for p, Initial residual = 0.000211446, Final residual = 9.97969e-07, No Iterations 136
time step continuity errors : sum local = 3.71014e-12, global = -1.14632e-14, cumulative = -6.00778e-13
ExecutionTime = 9.53 s  ClockTime = 10 s

Time = 1.2e-05

Courant Number mean: 0.000231882 max: 0.00653855
smoothSolver:  Solving for Ux, Initial residual = 0.110378, Final residual = 5.68321e-06, No Iterations 6
smoothSolver:  Solving for Uy, Initial residual = 0.0146029, Final residual = 3.99217e-06, No Iterations 5
DICPCG:  Solving for p, Initial residual = 0.00170852, Final residual = 8.93766e-07, No Iterations 145
time step continuity errors : sum local = 3.33214e-12, global = -2.83633e-14, cumulative = -6.29141e-13
DICPCG:  Solving for p, Initial residual = 0.00017898, Final residual = 9.90117e-07, No Iterations 136
time step continuity errors : sum local = 3.66012e-12, global = -1.15674e-14, cumulative = -6.40709e-13
ExecutionTime = 10.27 s  ClockTime = 11 s

Time = 1.3e-05

Courant Number mean: 0.000241232 max: 0.0066181
smoothSolver:  Solving for Ux, Initial residual = 0.105578, Final residual = 5.43235e-06, No Iterations 6
smoothSolver:  Solving for Uy, Initial residual = 0.0139588, Final residual = 3.81708e-06, No Iterations 5
DICPCG:  Solving for p, Initial residual = 0.0015074, Final residual = 8.39876e-07, No Iterations 145
time step continuity errors : sum local = 3.11405e-12, global = -3.1189e-14, cumulative = -6.71898e-13
DICPCG:  Solving for p, Initial residual = 0.000155608, Final residual = 9.61765e-07, No Iterations 136
time step continuity errors : sum local = 3.53635e-12, global = -1.36587e-14, cumulative = -6.85557e-13
ExecutionTime = 11.02 s  ClockTime = 11 s

Time = 1.4e-05

Courant Number mean: 0.000250524 max: 0.0068122
smoothSolver:  Solving for Ux, Initial residual = 0.101123, Final residual = 5.20003e-06, No Iterations 6
smoothSolver:  Solving for Uy, Initial residual = 0.0133684, Final residual = 3.65666e-06, No Iterations 5
DICPCG:  Solving for p, Initial residual = 0.00134048, Final residual = 9.69992e-07, No Iterations 144
time step continuity errors : sum local = 3.57762e-12, global = -3.39016e-14, cumulative = -7.19458e-13
DICPCG:  Solving for p, Initial residual = 0.000137713, Final residual = 9.46905e-07, No Iterations 136
time step continuity errors : sum local = 3.46381e-12, global = -1.35912e-14, cumulative = -7.3305e-13
ExecutionTime = 11.74 s  ClockTime = 12 s

Time = 1.5e-05

Courant Number mean: 0.000259759 max: 0.0070279
smoothSolver:  Solving for Ux, Initial residual = 0.0969851, Final residual = 4.98469e-06, No Iterations 6
smoothSolver:  Solving for Uy, Initial residual = 0.0128247, Final residual = 3.50898e-06, No Iterations 5
DICPCG:  Solving for p, Initial residual = 0.00120055, Final residual = 9.34589e-07, No Iterations 144
time step continuity errors : sum local = 3.42949e-12, global = -3.8964e-14, cumulative = -7.72014e-13
DICPCG:  Solving for p, Initial residual = 0.00012388, Final residual = 9.32241e-07, No Iterations 136
time step continuity errors : sum local = 3.39312e-12, global = -1.35463e-14, cumulative = -7.8556e-13
ExecutionTime = 12.39 s  ClockTime = 13 s

Time = 1.6e-05

Courant Number mean: 0.000268939 max: 0.00723223
smoothSolver:  Solving for Ux, Initial residual = 0.093133, Final residual = 4.78476e-06, No Iterations 6
smoothSolver:  Solving for Uy, Initial residual = 0.0123224, Final residual = 3.37254e-06, No Iterations 5
DICPCG:  Solving for p, Initial residual = 0.001082, Final residual = 9.08189e-07, No Iterations 144
time step continuity errors : sum local = 3.31606e-12, global = -4.16848e-14, cumulative = -8.27245e-13
DICPCG:  Solving for p, Initial residual = 0.000112401, Final residual = 9.93142e-07, No Iterations 135
time step continuity errors : sum local = 3.59712e-12, global = -2.46378e-14, cumulative = -8.51882e-13
ExecutionTime = 13.15 s  ClockTime = 14 s

Time = 1.7e-05

Courant Number mean: 0.000278064 max: 0.00742592
smoothSolver:  Solving for Ux, Initial residual = 0.089534, Final residual = 4.59807e-06, No Iterations 6
smoothSolver:  Solving for Uy, Initial residual = 0.0118567, Final residual = 3.24603e-06, No Iterations 5
DICPCG:  Solving for p, Initial residual = 0.000981526, Final residual = 8.87641e-07, No Iterations 144
time step continuity errors : sum local = 3.22525e-12, global = -4.22971e-14, cumulative = -8.94179e-13
DICPCG:  Solving for p, Initial residual = 0.000104247, Final residual = 9.87395e-07, No Iterations 135
time step continuity errors : sum local = 3.55918e-12, global = -2.16175e-14, cumulative = -9.15797e-13
ExecutionTime = 13.89 s  ClockTime = 14 s

Time = 1.8e-05

Courant Number mean: 0.000287135 max: 0.00760961
smoothSolver:  Solving for Ux, Initial residual = 0.0861681, Final residual = 4.42356e-06, No Iterations 6
smoothSolver:  Solving for Uy, Initial residual = 0.0114238, Final residual = 3.12841e-06, No Iterations 5
DICPCG:  Solving for p, Initial residual = 0.000894589, Final residual = 8.68404e-07, No Iterations 144
time step continuity errors : sum local = 3.14028e-12, global = -4.1734e-14, cumulative = -9.57531e-13
DICPCG:  Solving for p, Initial residual = 9.62665e-05, Final residual = 9.79408e-07, No Iterations 135
time step continuity errors : sum local = 3.51379e-12, global = -1.81833e-14, cumulative = -9.75714e-13
ExecutionTime = 14.75 s  ClockTime = 15 s

Time = 1.9e-05

Courant Number mean: 0.000296153 max: 0.00778392
smoothSolver:  Solving for Ux, Initial residual = 0.0830127, Final residual = 4.26004e-06, No Iterations 6
smoothSolver:  Solving for Uy, Initial residual = 0.0110201, Final residual = 3.0187e-06, No Iterations 5
DICPCG:  Solving for p, Initial residual = 0.000819893, Final residual = 8.45734e-07, No Iterations 144
time step continuity errors : sum local = 3.0439e-12, global = -4.12306e-14, cumulative = -1.01694e-12
DICPCG:  Solving for p, Initial residual = 9.03961e-05, Final residual = 9.72964e-07, No Iterations 135
time step continuity errors : sum local = 3.47443e-12, global = -1.5877e-14, cumulative = -1.03282e-12
ExecutionTime = 15.59 s  ClockTime = 16 s

Time = 2e-05

Courant Number mean: 0.000305117 max: 0.0079494
smoothSolver:  Solving for Ux, Initial residual = 0.0800509, Final residual = 4.10664e-06, No Iterations 6
smoothSolver:  Solving for Uy, Initial residual = 0.010643, Final residual = 2.91616e-06, No Iterations 5
DICPCG:  Solving for p, Initial residual = 0.000754693, Final residual = 8.19878e-07, No Iterations 144
time step continuity errors : sum local = 2.9372e-12, global = -4.11589e-14, cumulative = -1.07398e-12
DICPCG:  Solving for p, Initial residual = 8.55688e-05, Final residual = 9.58239e-07, No Iterations 135
time step continuity errors : sum local = 3.40627e-12, global = -1.45216e-14, cumulative = -1.0885e-12
ExecutionTime = 16.22 s  ClockTime = 17 s

Time = 2.1e-05

Courant Number mean: 0.00031403 max: 0.00810656
smoothSolver:  Solving for Ux, Initial residual = 0.0772655, Final residual = 3.96242e-06, No Iterations 6
smoothSolver:  Solving for Uy, Initial residual = 0.0102898, Final residual = 2.82012e-06, No Iterations 5
DICPCG:  Solving for p, Initial residual = 0.000697279, Final residual = 9.67449e-07, No Iterations 143
time step continuity errors : sum local = 3.45009e-12, global = -3.63819e-14, cumulative = -1.12488e-12
DICPCG:  Solving for p, Initial residual = 8.11967e-05, Final residual = 9.78655e-07, No Iterations 134
time step continuity errors : sum local = 3.46321e-12, global = -2.08557e-14, cumulative = -1.14574e-12
ExecutionTime = 16.98 s  ClockTime = 18 s

Time = 2.2e-05

Courant Number mean: 0.000322891 max: 0.00825591
smoothSolver:  Solving for Ux, Initial residual = 0.0746392, Final residual = 3.82652e-06, No Iterations 6
smoothSolver:  Solving for Uy, Initial residual = 0.00995838, Final residual = 2.72995e-06, No Iterations 5
DICPCG:  Solving for p, Initial residual = 0.000646586, Final residual = 9.29905e-07, No Iterations 143
time step continuity errors : sum local = 3.30128e-12, global = -3.81622e-14, cumulative = -1.1839e-12
DICPCG:  Solving for p, Initial residual = 7.76213e-05, Final residual = 9.54527e-07, No Iterations 134
time step continuity errors : sum local = 3.36278e-12, global = -2.12799e-14, cumulative = -1.20518e-12
ExecutionTime = 17.64 s  ClockTime = 18 s

Time = 2.3e-05

Courant Number mean: 0.000331701 max: 0.00839789
smoothSolver:  Solving for Ux, Initial residual = 0.072153, Final residual = 3.69792e-06, No Iterations 6
smoothSolver:  Solving for Uy, Initial residual = 0.00964665, Final residual = 2.64512e-06, No Iterations 5
DICPCG:  Solving for p, Initial residual = 0.000600023, Final residual = 8.96077e-07, No Iterations 143
time step continuity errors : sum local = 3.16701e-12, global = -3.994e-14, cumulative = -1.24512e-12
DICPCG:  Solving for p, Initial residual = 7.4092e-05, Final residual = 9.36623e-07, No Iterations 134
time step continuity errors : sum local = 3.28514e-12, global = -2.17047e-14, cumulative = -1.26683e-12
ExecutionTime = 18.3 s  ClockTime = 19 s

Time = 2.4e-05

Courant Number mean: 0.00034046 max: 0.00853292
smoothSolver:  Solving for Ux, Initial residual = 0.0698034, Final residual = 3.57644e-06, No Iterations 6
smoothSolver:  Solving for Uy, Initial residual = 0.00935294, Final residual = 2.56517e-06, No Iterations 5
DICPCG:  Solving for p, Initial residual = 0.000558626, Final residual = 9.95601e-07, No Iterations 142
time step continuity errors : sum local = 3.50324e-12, global = -4.84336e-14, cumulative = -1.31526e-12
DICPCG:  Solving for p, Initial residual = 7.1094e-05, Final residual = 9.23915e-07, No Iterations 134
time step continuity errors : sum local = 3.22643e-12, global = -2.16943e-14, cumulative = -1.33695e-12
ExecutionTime = 19.14 s  ClockTime = 20 s

Time = 2.5e-05

Courant Number mean: 0.000349169 max: 0.0086614
smoothSolver:  Solving for Ux, Initial residual = 0.067579, Final residual = 3.46148e-06, No Iterations 6
smoothSolver:  Solving for Uy, Initial residual = 0.00907575, Final residual = 2.48969e-06, No Iterations 5
DICPCG:  Solving for p, Initial residual = 0.00052123, Final residual = 9.73623e-07, No Iterations 142
time step continuity errors : sum local = 3.41094e-12, global = -4.89406e-14, cumulative = -1.3859e-12
DICPCG:  Solving for p, Initial residual = 6.84639e-05, Final residual = 9.14448e-07, No Iterations 134
time step continuity errors : sum local = 3.17954e-12, global = -2.09076e-14, cumulative = -1.4068e-12
ExecutionTime = 19.98 s  ClockTime = 21 s

Time = 2.6e-05

Courant Number mean: 0.000357829 max: 0.00878371
smoothSolver:  Solving for Ux, Initial residual = 0.0654717, Final residual = 3.35261e-06, No Iterations 6
smoothSolver:  Solving for Uy, Initial residual = 0.00881369, Final residual = 2.41831e-06, No Iterations 5
DICPCG:  Solving for p, Initial residual = 0.000487317, Final residual = 9.53547e-07, No Iterations 142
time step continuity errors : sum local = 3.32611e-12, global = -4.85852e-14, cumulative = -1.45539e-12
DICPCG:  Solving for p, Initial residual = 6.60047e-05, Final residual = 9.87138e-07, No Iterations 133
time step continuity errors : sum local = 3.4175e-12, global = -4.03309e-14, cumulative = -1.49572e-12
ExecutionTime = 20.72 s  ClockTime = 21 s

Time = 2.7e-05

Courant Number mean: 0.00036644 max: 0.00890018
smoothSolver:  Solving for Ux, Initial residual = 0.0634728, Final residual = 3.24939e-06, No Iterations 6
smoothSolver:  Solving for Uy, Initial residual = 0.00856558, Final residual = 2.35072e-06, No Iterations 5
DICPCG:  Solving for p, Initial residual = 0.000457119, Final residual = 9.32478e-07, No Iterations 142
time step continuity errors : sum local = 3.23859e-12, global = -4.76519e-14, cumulative = -1.54337e-12
DICPCG:  Solving for p, Initial residual = 6.3848e-05, Final residual = 9.65892e-07, No Iterations 133
time step continuity errors : sum local = 3.32961e-12, global = -3.68736e-14, cumulative = -1.58024e-12
ExecutionTime = 21.44 s  ClockTime = 22 s

Time = 2.8e-05

Courant Number mean: 0.000375002 max: 0.00901113
smoothSolver:  Solving for Ux, Initial residual = 0.0615729, Final residual = 3.15132e-06, No Iterations 6
smoothSolver:  Solving for Uy, Initial residual = 0.00833029, Final residual = 2.2866e-06, No Iterations 5
DICPCG:  Solving for p, Initial residual = 0.000428623, Final residual = 9.09329e-07, No Iterations 142
time step continuity errors : sum local = 3.14463e-12, global = -4.64743e-14, cumulative = -1.62672e-12
DICPCG:  Solving for p, Initial residual = 6.15797e-05, Final residual = 9.91321e-07, No Iterations 132
time step continuity errors : sum local = 3.40267e-12, global = -3.3828e-14, cumulative = -1.66055e-12
ExecutionTime = 22.12 s  ClockTime = 23 s

Time = 2.9e-05

Courant Number mean: 0.000383516 max: 0.00911688
smoothSolver:  Solving for Ux, Initial residual = 0.0597644, Final residual = 3.05801e-06, No Iterations 6
smoothSolver:  Solving for Uy, Initial residual = 0.00810688, Final residual = 2.2257e-06, No Iterations 5
DICPCG:  Solving for p, Initial residual = 0.000403627, Final residual = 8.83701e-07, No Iterations 142
time step continuity errors : sum local = 3.04294e-12, global = -4.54477e-14, cumulative = -1.70599e-12
DICPCG:  Solving for p, Initial residual = 5.97244e-05, Final residual = 9.706e-07, No Iterations 132
time step continuity errors : sum local = 3.31739e-12, global = -3.21178e-14, cumulative = -1.73811e-12
ExecutionTime = 22.95 s  ClockTime = 24 s

Time = 3e-05

Courant Number mean: 0.000391982 max: 0.00921769
smoothSolver:  Solving for Ux, Initial residual = 0.058042, Final residual = 2.96917e-06, No Iterations 6
smoothSolver:  Solving for Uy, Initial residual = 0.00789444, Final residual = 2.16778e-06, No Iterations 5
DICPCG:  Solving for p, Initial residual = 0.000379673, Final residual = 8.57197e-07, No Iterations 142
time step continuity errors : sum local = 2.93912e-12, global = -4.47212e-14, cumulative = -1.78283e-12
DICPCG:  Solving for p, Initial residual = 5.76639e-05, Final residual = 9.55986e-07, No Iterations 132
time step continuity errors : sum local = 3.25361e-12, global = -3.01448e-14, cumulative = -1.81298e-12
ExecutionTime = 23.75 s  ClockTime = 25 s

Time = 3.1e-05

Courant Number mean: 0.000400402 max: 0.00931384
smoothSolver:  Solving for Ux, Initial residual = 0.0564003, Final residual = 2.88453e-06, No Iterations 6
smoothSolver:  Solving for Uy, Initial residual = 0.00769219, Final residual = 2.11263e-06, No Iterations 5
DICPCG:  Solving for p, Initial residual = 0.000358275, Final residual = 9.80832e-07, No Iterations 141
time step continuity errors : sum local = 3.34876e-12, global = -3.26458e-14, cumulative = -1.84562e-12
DICPCG:  Solving for p, Initial residual = 5.58301e-05, Final residual = 9.42086e-07, No Iterations 132
time step continuity errors : sum local = 3.19275e-12, global = -2.89711e-14, cumulative = -1.8746e-12
ExecutionTime = 24.59 s  ClockTime = 25 s

Time = 3.2e-05

Courant Number mean: 0.000408774 max: 0.00940557
smoothSolver:  Solving for Ux, Initial residual = 0.0548327, Final residual = 2.80375e-06, No Iterations 6
smoothSolver:  Solving for Uy, Initial residual = 0.00749942, Final residual = 2.06004e-06, No Iterations 5
DICPCG:  Solving for p, Initial residual = 0.00033888, Final residual = 9.55183e-07, No Iterations 141
time step continuity errors : sum local = 3.24738e-12, global = -3.34929e-14, cumulative = -1.90809e-12
DICPCG:  Solving for p, Initial residual = 5.42357e-05, Final residual = 9.3302e-07, No Iterations 132
time step continuity errors : sum local = 3.14869e-12, global = -2.86827e-14, cumulative = -1.93677e-12
ExecutionTime = 25.24 s  ClockTime = 26 s

Time = 3.3e-05

Courant Number mean: 0.000417099 max: 0.00949311
smoothSolver:  Solving for Ux, Initial residual = 0.0533359, Final residual = 2.72664e-06, No Iterations 6
smoothSolver:  Solving for Uy, Initial residual = 0.00731542, Final residual = 2.00984e-06, No Iterations 5
DICPCG:  Solving for p, Initial residual = 0.000321254, Final residual = 9.34101e-07, No Iterations 141
time step continuity errors : sum local = 3.16229e-12, global = -3.4526e-14, cumulative = -1.9713e-12
DICPCG:  Solving for p, Initial residual = 5.2637e-05, Final residual = 9.2482e-07, No Iterations 132
time step continuity errors : sum local = 3.10787e-12, global = -2.87697e-14, cumulative = -2.00007e-12
ExecutionTime = 25.85 s  ClockTime = 27 s

Time = 3.4e-05

Courant Number mean: 0.000425379 max: 0.00957668
smoothSolver:  Solving for Ux, Initial residual = 0.0519058, Final residual = 2.65298e-06, No Iterations 6
smoothSolver:  Solving for Uy, Initial residual = 0.00713964, Final residual = 9.94476e-06, No Iterations 4
DICPCG:  Solving for p, Initial residual = 0.00031248, Final residual = 8.576e-07, No Iterations 142
time step continuity errors : sum local = 2.89106e-12, global = -5.67049e-14, cumulative = -2.05677e-12
DICPCG:  Solving for p, Initial residual = 7.05289e-05, Final residual = 9.10687e-07, No Iterations 136
time step continuity errors : sum local = 3.0374e-12, global = 1.56195e-14, cumulative = -2.04115e-12
ExecutionTime = 26.53 s  ClockTime = 27 s

Time = 3.5e-05

Courant Number mean: 0.000433607 max: 0.00965848
smoothSolver:  Solving for Ux, Initial residual = 0.0505645, Final residual = 2.58392e-06, No Iterations 6
smoothSolver:  Solving for Uy, Initial residual = 0.00697557, Final residual = 9.71771e-06, No Iterations 4
DICPCG:  Solving for p, Initial residual = 0.000296712, Final residual = 8.66472e-07, No Iterations 142
time step continuity errors : sum local = 2.91004e-12, global = -5.96643e-14, cumulative = -2.10082e-12
DICPCG:  Solving for p, Initial residual = 6.69487e-05, Final residual = 8.99158e-07, No Iterations 136
time step continuity errors : sum local = 2.98627e-12, global = 1.50496e-14, cumulative = -2.08577e-12
ExecutionTime = 27.16 s  ClockTime = 28 s

Time = 3.6e-05

Courant Number mean: 0.00044179 max: 0.00973706
smoothSolver:  Solving for Ux, Initial residual = 0.0492493, Final residual = 2.51624e-06, No Iterations 6
smoothSolver:  Solving for Uy, Initial residual = 0.00681387, Final residual = 9.49354e-06, No Iterations 4
DICPCG:  Solving for p, Initial residual = 0.000282881, Final residual = 8.50054e-07, No Iterations 142
time step continuity errors : sum local = 2.84265e-12, global = -5.92198e-14, cumulative = -2.14499e-12
DICPCG:  Solving for p, Initial residual = 6.61107e-05, Final residual = 8.93043e-07, No Iterations 136
time step continuity errors : sum local = 2.95355e-12, global = 1.41446e-14, cumulative = -2.13084e-12
ExecutionTime = 27.87 s  ClockTime = 29 s

Time = 3.7e-05

Courant Number mean: 0.000449929 max: 0.00981216
smoothSolver:  Solving for Ux, Initial residual = 0.047995, Final residual = 2.4517e-06, No Iterations 6
smoothSolver:  Solving for Uy, Initial residual = 0.00665978, Final residual = 9.27995e-06, No Iterations 4
DICPCG:  Solving for p, Initial residual = 0.000270272, Final residual = 9.83955e-07, No Iterations 141
time step continuity errors : sum local = 3.27668e-12, global = -5.18562e-14, cumulative = -2.1827e-12
DICPCG:  Solving for p, Initial residual = 6.48717e-05, Final residual = 9.89835e-07, No Iterations 135
time step continuity errors : sum local = 3.26001e-12, global = 6.3522e-15, cumulative = -2.17635e-12
ExecutionTime = 28.53 s  ClockTime = 29 s

Time = 3.8e-05

Courant Number mean: 0.000458022 max: 0.00988394
smoothSolver:  Solving for Ux, Initial residual = 0.0467908, Final residual = 2.38977e-06, No Iterations 6
smoothSolver:  Solving for Uy, Initial residual = 0.00651189, Final residual = 9.0749e-06, No Iterations 4
DICPCG:  Solving for p, Initial residual = 0.000259087, Final residual = 9.63031e-07, No Iterations 141
time step continuity errors : sum local = 3.19359e-12, global = -5.21539e-14, cumulative = -2.2285e-12
DICPCG:  Solving for p, Initial residual = 6.39545e-05, Final residual = 9.98107e-07, No Iterations 135
time step continuity errors : sum local = 3.27355e-12, global = 4.50062e-15, cumulative = -2.224e-12
ExecutionTime = 29.22 s  ClockTime = 30 s

Time = 3.9e-05

Courant Number mean: 0.000466072 max: 0.00995257
smoothSolver:  Solving for Ux, Initial residual = 0.0456352, Final residual = 2.33035e-06, No Iterations 6
smoothSolver:  Solving for Uy, Initial residual = 0.00636994, Final residual = 8.87806e-06, No Iterations 4
DICPCG:  Solving for p, Initial residual = 0.000247869, Final residual = 9.41199e-07, No Iterations 141
time step continuity errors : sum local = 3.10815e-12, global = -5.23987e-14, cumulative = -2.2764e-12
DICPCG:  Solving for p, Initial residual = 6.28625e-05, Final residual = 9.85785e-07, No Iterations 135
time step continuity errors : sum local = 3.21967e-12, global = 3.67526e-15, cumulative = -2.27272e-12
ExecutionTime = 30.03 s  ClockTime = 31 s

Time = 4e-05

Courant Number mean: 0.000474077 max: 0.0100182
smoothSolver:  Solving for Ux, Initial residual = 0.0445255, Final residual = 2.27331e-06, No Iterations 6
smoothSolver:  Solving for Uy, Initial residual = 0.00623355, Final residual = 8.68891e-06, No Iterations 4
DICPCG:  Solving for p, Initial residual = 0.00023782, Final residual = 9.18155e-07, No Iterations 141
time step continuity errors : sum local = 3.01939e-12, global = -5.25251e-14, cumulative = -2.32525e-12
DICPCG:  Solving for p, Initial residual = 6.1868e-05, Final residual = 9.72247e-07, No Iterations 135
time step continuity errors : sum local = 3.16223e-12, global = 2.87035e-15, cumulative = -2.32238e-12
ExecutionTime = 30.87 s  ClockTime = 32 s

Time = 4.1e-05

Courant Number mean: 0.000482039 max: 0.010081
smoothSolver:  Solving for Ux, Initial residual = 0.043459, Final residual = 2.2185e-06, No Iterations 6
smoothSolver:  Solving for Uy, Initial residual = 0.00610242, Final residual = 8.50702e-06, No Iterations 4
DICPCG:  Solving for p, Initial residual = 0.000228442, Final residual = 8.94504e-07, No Iterations 141
time step continuity errors : sum local = 2.92934e-12, global = -5.25199e-14, cumulative = -2.3749e-12
DICPCG:  Solving for p, Initial residual = 6.09154e-05, Final residual = 9.57896e-07, No Iterations 135
time step continuity errors : sum local = 3.10258e-12, global = 2.10957e-15, cumulative = -2.37279e-12
ExecutionTime = 31.5 s  ClockTime = 32 s

Time = 4.2e-05

Courant Number mean: 0.000489957 max: 0.010141
smoothSolver:  Solving for Ux, Initial residual = 0.0424334, Final residual = 2.16581e-06, No Iterations 6
smoothSolver:  Solving for Uy, Initial residual = 0.00597624, Final residual = 8.33197e-06, No Iterations 4
DICPCG:  Solving for p, Initial residual = 0.000219806, Final residual = 8.70587e-07, No Iterations 141
time step continuity errors : sum local = 2.83911e-12, global = -5.23641e-14, cumulative = -2.42515e-12
DICPCG:  Solving for p, Initial residual = 6.00269e-05, Final residual = 9.42536e-07, No Iterations 135
time step continuity errors : sum local = 3.04012e-12, global = 1.40178e-15, cumulative = -2.42375e-12
ExecutionTime = 32.15 s  ClockTime = 33 s

Time = 4.3e-05

Courant Number mean: 0.000497832 max: 0.0101985
smoothSolver:  Solving for Ux, Initial residual = 0.0414466, Final residual = 2.11513e-06, No Iterations 6
smoothSolver:  Solving for Uy, Initial residual = 0.00585473, Final residual = 8.16338e-06, No Iterations 4
DICPCG:  Solving for p, Initial residual = 0.000211828, Final residual = 9.95003e-07, No Iterations 140
time step continuity errors : sum local = 3.23131e-12, global = -5.64534e-14, cumulative = -2.4802e-12
DICPCG:  Solving for p, Initial residual = 5.92193e-05, Final residual = 9.94217e-07, No Iterations 134
time step continuity errors : sum local = 3.19346e-12, global = -1.85043e-14, cumulative = -2.49871e-12
ExecutionTime = 32.86 s  ClockTime = 34 s

Time = 4.4e-05

Courant Number mean: 0.000505664 max: 0.0102535
smoothSolver:  Solving for Ux, Initial residual = 0.0404966, Final residual = 2.06634e-06, No Iterations 6
smoothSolver:  Solving for Uy, Initial residual = 0.00573765, Final residual = 8.00091e-06, No Iterations 4
DICPCG:  Solving for p, Initial residual = 0.000204921, Final residual = 9.69105e-07, No Iterations 140
time step continuity errors : sum local = 3.13407e-12, global = -5.56308e-14, cumulative = -2.55434e-12
DICPCG:  Solving for p, Initial residual = 5.85959e-05, Final residual = 9.76532e-07, No Iterations 134
time step continuity errors : sum local = 3.12359e-12, global = -1.87773e-14, cumulative = -2.57312e-12
ExecutionTime = 33.65 s  ClockTime = 35 s

Time = 4.5e-05

Courant Number mean: 0.000513454 max: 0.0103061
smoothSolver:  Solving for Ux, Initial residual = 0.0395812, Final residual = 2.01935e-06, No Iterations 6
smoothSolver:  Solving for Uy, Initial residual = 0.00562474, Final residual = 7.84421e-06, No Iterations 4
DICPCG:  Solving for p, Initial residual = 0.000197564, Final residual = 9.45892e-07, No Iterations 140
time step continuity errors : sum local = 3.04624e-12, global = -5.46158e-14, cumulative = -2.62773e-12
DICPCG:  Solving for p, Initial residual = 5.77463e-05, Final residual = 9.60633e-07, No Iterations 134
time step continuity errors : sum local = 3.05995e-12, global = -1.88671e-14, cumulative = -2.6466e-12
ExecutionTime = 34.42 s  ClockTime = 35 s

Time = 4.6e-05

Courant Number mean: 0.000521202 max: 0.0103565
smoothSolver:  Solving for Ux, Initial residual = 0.0386988, Final residual = 1.97405e-06, No Iterations 6
smoothSolver:  Solving for Uy, Initial residual = 0.00551579, Final residual = 7.69298e-06, No Iterations 4
DICPCG:  Solving for p, Initial residual = 0.000191047, Final residual = 9.2515e-07, No Iterations 140
time step continuity errors : sum local = 2.96701e-12, global = -5.3393e-14, cumulative = -2.69999e-12
DICPCG:  Solving for p, Initial residual = 5.70078e-05, Final residual = 9.45655e-07, No Iterations 134
time step continuity errors : sum local = 2.99969e-12, global = -1.89179e-14, cumulative = -2.71891e-12
ExecutionTime = 35.04 s  ClockTime = 36 s

Time = 4.7e-05

Courant Number mean: 0.000528907 max: 0.0104048
smoothSolver:  Solving for Ux, Initial residual = 0.0378475, Final residual = 9.86334e-06, No Iterations 5
smoothSolver:  Solving for Uy, Initial residual = 0.0054106, Final residual = 7.54695e-06, No Iterations 4
DICPCG:  Solving for p, Initial residual = 0.000184378, Final residual = 9.01957e-07, No Iterations 140
time step continuity errors : sum local = 2.88056e-12, global = -5.16399e-14, cumulative = -2.77055e-12
DICPCG:  Solving for p, Initial residual = 5.48366e-05, Final residual = 9.68365e-07, No Iterations 133
time step continuity errors : sum local = 3.0598e-12, global = -2.35297e-14, cumulative = -2.79408e-12
ExecutionTime = 35.68 s  ClockTime = 37 s

Time = 4.8e-05

Courant Number mean: 0.000536571 max: 0.0104509
smoothSolver:  Solving for Ux, Initial residual = 0.0370261, Final residual = 9.64836e-06, No Iterations 5
smoothSolver:  Solving for Uy, Initial residual = 0.00530898, Final residual = 7.40587e-06, No Iterations 4
DICPCG:  Solving for p, Initial residual = 0.000179094, Final residual = 8.85905e-07, No Iterations 140
time step continuity errors : sum local = 2.8175e-12, global = -5.00917e-14, cumulative = -2.84417e-12
DICPCG:  Solving for p, Initial residual = 5.43157e-05, Final residual = 9.56434e-07, No Iterations 133
time step continuity errors : sum local = 3.0095e-12, global = -2.3036e-14, cumulative = -2.86721e-12
ExecutionTime = 36.38 s  ClockTime = 37 s

Time = 4.9e-05

Courant Number mean: 0.000544194 max: 0.0104952
smoothSolver:  Solving for Ux, Initial residual = 0.0362325, Final residual = 9.44069e-06, No Iterations 5
smoothSolver:  Solving for Uy, Initial residual = 0.00521074, Final residual = 7.26945e-06, No Iterations 4
DICPCG:  Solving for p, Initial residual = 0.000173335, Final residual = 8.71595e-07, No Iterations 140
time step continuity errors : sum local = 2.76042e-12, global = -4.84896e-14, cumulative = -2.9157e-12
DICPCG:  Solving for p, Initial residual = 5.35849e-05, Final residual = 9.44622e-07, No Iterations 133
time step continuity errors : sum local = 2.95995e-12, global = -2.25514e-14, cumulative = -2.93825e-12
ExecutionTime = 37.08 s  ClockTime = 38 s

Time = 5e-05

Courant Number mean: 0.000551776 max: 0.0105375
smoothSolver:  Solving for Ux, Initial residual = 0.0354658, Final residual = 9.24011e-06, No Iterations 5
smoothSolver:  Solving for Uy, Initial residual = 0.00511571, Final residual = 7.13749e-06, No Iterations 4
DICPCG:  Solving for p, Initial residual = 0.000168318, Final residual = 8.5892e-07, No Iterations 140
time step continuity errors : sum local = 2.70892e-12, global = -4.68033e-14, cumulative = -2.98505e-12
DICPCG:  Solving for p, Initial residual = 5.29838e-05, Final residual = 9.90895e-07, No Iterations 132
time step continuity errors : sum local = 3.09201e-12, global = -3.24614e-14, cumulative = -3.01751e-12
ExecutionTime = 37.95 s  ClockTime = 39 s

Time = 5.1e-05

Courant Number mean: 0.000559316 max: 0.0105781
smoothSolver:  Solving for Ux, Initial residual = 0.0347248, Final residual = 9.04626e-06, No Iterations 5
smoothSolver:  Solving for Uy, Initial residual = 0.00502375, Final residual = 7.00977e-06, No Iterations 4
DICPCG:  Solving for p, Initial residual = 0.000163969, Final residual = 8.47855e-07, No Iterations 140
time step continuity errors : sum local = 2.66286e-12, global = -4.50152e-14, cumulative = -3.06253e-12
DICPCG:  Solving for p, Initial residual = 5.24238e-05, Final residual = 9.79267e-07, No Iterations 132
time step continuity errors : sum local = 3.04299e-12, global = -3.17471e-14, cumulative = -3.09427e-12
ExecutionTime = 38.68 s  ClockTime = 40 s

Time = 5.2e-05

Courant Number mean: 0.000566817 max: 0.010617
smoothSolver:  Solving for Ux, Initial residual = 0.0340081, Final residual = 8.85883e-06, No Iterations 5
smoothSolver:  Solving for Uy, Initial residual = 0.00493469, Final residual = 6.88606e-06, No Iterations 4
DICPCG:  Solving for p, Initial residual = 0.000159086, Final residual = 8.37667e-07, No Iterations 140
time step continuity errors : sum local = 2.61988e-12, global = -4.33089e-14, cumulative = -3.13758e-12
DICPCG:  Solving for p, Initial residual = 5.18355e-05, Final residual = 9.68265e-07, No Iterations 132
time step continuity errors : sum local = 2.99626e-12, global = -3.10277e-14, cumulative = -3.16861e-12
ExecutionTime = 39.5 s  ClockTime = 41 s

Time = 5.3e-05

Courant Number mean: 0.000574276 max: 0.0106542
smoothSolver:  Solving for Ux, Initial residual = 0.0333146, Final residual = 8.67747e-06, No Iterations 5
smoothSolver:  Solving for Uy, Initial residual = 0.00484841, Final residual = 6.76621e-06, No Iterations 4
DICPCG:  Solving for p, Initial residual = 0.000154893, Final residual = 8.2827e-07, No Iterations 140
time step continuity errors : sum local = 2.57967e-12, global = -4.16013e-14, cumulative = -3.21021e-12
DICPCG:  Solving for p, Initial residual = 5.13094e-05, Final residual = 9.57243e-07, No Iterations 132
time step continuity errors : sum local = 2.9498e-12, global = -3.03115e-14, cumulative = -3.24052e-12
ExecutionTime = 40.37 s  ClockTime = 42 s

Time = 5.4e-05

Courant Number mean: 0.000581696 max: 0.0106898
smoothSolver:  Solving for Ux, Initial residual = 0.0326432, Final residual = 8.50191e-06, No Iterations 5
smoothSolver:  Solving for Uy, Initial residual = 0.00476478, Final residual = 6.65002e-06, No Iterations 4
DICPCG:  Solving for p, Initial residual = 0.000150896, Final residual = 8.19366e-07, No Iterations 140
time step continuity errors : sum local = 2.54129e-12, global = -3.9931e-14, cumulative = -3.28046e-12
DICPCG:  Solving for p, Initial residual = 5.08037e-05, Final residual = 9.46371e-07, No Iterations 132
time step continuity errors : sum local = 2.90414e-12, global = -2.95954e-14, cumulative = -3.31005e-12
ExecutionTime = 41.39 s  ClockTime = 43 s

Time = 5.5e-05

Courant Number mean: 0.000589076 max: 0.010724
smoothSolver:  Solving for Ux, Initial residual = 0.0319929, Final residual = 8.33192e-06, No Iterations 5
smoothSolver:  Solving for Uy, Initial residual = 0.00468367, Final residual = 6.53732e-06, No Iterations 4
DICPCG:  Solving for p, Initial residual = 0.00014714, Final residual = 9.89308e-07, No Iterations 139
time step continuity errors : sum local = 3.05556e-12, global = -3.56489e-14, cumulative = -3.3457e-12
DICPCG:  Solving for p, Initial residual = 5.04281e-05, Final residual = 9.35726e-07, No Iterations 132
time step continuity errors : sum local = 2.85951e-12, global = -2.89217e-14, cumulative = -3.37462e-12
ExecutionTime = 42.09 s  ClockTime = 44 s

Time = 5.6e-05

Courant Number mean: 0.000596416 max: 0.0107567
smoothSolver:  Solving for Ux, Initial residual = 0.031363, Final residual = 8.16726e-06, No Iterations 5
smoothSolver:  Solving for Uy, Initial residual = 0.00460498, Final residual = 6.42797e-06, No Iterations 4
DICPCG:  Solving for p, Initial residual = 0.000143666, Final residual = 9.76952e-07, No Iterations 139
time step continuity errors : sum local = 3.00479e-12, global = -3.39378e-14, cumulative = -3.40856e-12
DICPCG:  Solving for p, Initial residual = 5.00688e-05, Final residual = 9.96656e-07, No Iterations 131
time step continuity errors : sum local = 3.03301e-12, global = -3.41523e-14, cumulative = -3.44271e-12
ExecutionTime = 42.95 s  ClockTime = 45 s

Time = 5.7e-05

Courant Number mean: 0.000603718 max: 0.010788
smoothSolver:  Solving for Ux, Initial residual = 0.0307525, Final residual = 8.00769e-06, No Iterations 5
smoothSolver:  Solving for Uy, Initial residual = 0.00452859, Final residual = 6.32181e-06, No Iterations 4
DICPCG:  Solving for p, Initial residual = 0.000140591, Final residual = 9.65022e-07, No Iterations 139
time step continuity errors : sum local = 2.95571e-12, global = -3.2228e-14, cumulative = -3.47494e-12
DICPCG:  Solving for p, Initial residual = 4.96066e-05, Final residual = 9.85959e-07, No Iterations 131
time step continuity errors : sum local = 2.98794e-12, global = -3.30318e-14, cumulative = -3.50797e-12
ExecutionTime = 43.66 s  ClockTime = 45 s

Time = 5.8e-05

Courant Number mean: 0.000610979 max: 0.010818
smoothSolver:  Solving for Ux, Initial residual = 0.0301604, Final residual = 7.85298e-06, No Iterations 5
smoothSolver:  Solving for Uy, Initial residual = 0.00445441, Final residual = 6.2187e-06, No Iterations 4
DICPCG:  Solving for p, Initial residual = 0.000136971, Final residual = 9.52736e-07, No Iterations 139
time step continuity errors : sum local = 2.90589e-12, global = -3.06495e-14, cumulative = -3.53862e-12
DICPCG:  Solving for p, Initial residual = 4.91422e-05, Final residual = 9.76439e-07, No Iterations 131
time step continuity errors : sum local = 2.94675e-12, global = -3.19074e-14, cumulative = -3.57053e-12
ExecutionTime = 44.37 s  ClockTime = 46 s

Time = 5.9e-05

Courant Number mean: 0.000618203 max: 0.0108467
smoothSolver:  Solving for Ux, Initial residual = 0.0295861, Final residual = 7.70292e-06, No Iterations 5
smoothSolver:  Solving for Uy, Initial residual = 0.00438244, Final residual = 6.1185e-06, No Iterations 4
DICPCG:  Solving for p, Initial residual = 0.000133884, Final residual = 9.40556e-07, No Iterations 139
time step continuity errors : sum local = 2.85676e-12, global = -2.91229e-14, cumulative = -3.59965e-12
DICPCG:  Solving for p, Initial residual = 4.87177e-05, Final residual = 9.67061e-07, No Iterations 131
time step continuity errors : sum local = 2.90628e-12, global = -3.083e-14, cumulative = -3.63048e-12
ExecutionTime = 45.12 s  ClockTime = 47 s

Time = 6e-05

Courant Number mean: 0.000625387 max: 0.0108742
smoothSolver:  Solving for Ux, Initial residual = 0.0290289, Final residual = 7.55732e-06, No Iterations 5
smoothSolver:  Solving for Uy, Initial residual = 0.00431253, Final residual = 6.0211e-06, No Iterations 4
DICPCG:  Solving for p, Initial residual = 0.000130941, Final residual = 9.28473e-07, No Iterations 139
time step continuity errors : sum local = 2.80829e-12, global = -2.76674e-14, cumulative = -3.65815e-12
DICPCG:  Solving for p, Initial residual = 4.83119e-05, Final residual = 9.57941e-07, No Iterations 131
time step continuity errors : sum local = 2.86687e-12, global = -2.97976e-14, cumulative = -3.68795e-12
ExecutionTime = 45.69 s  ClockTime = 47 s

Time = 6.1e-05

Courant Number mean: 0.000632533 max: 0.0109437
smoothSolver:  Solving for Ux, Initial residual = 0.0284878, Final residual = 7.416e-06, No Iterations 5
smoothSolver:  Solving for Uy, Initial residual = 0.0042446, Final residual = 5.92639e-06, No Iterations 4
DICPCG:  Solving for p, Initial residual = 0.000128165, Final residual = 9.16524e-07, No Iterations 139
time step continuity errors : sum local = 2.76057e-12, global = -2.62756e-14, cumulative = -3.71422e-12
DICPCG:  Solving for p, Initial residual = 4.79246e-05, Final residual = 9.49021e-07, No Iterations 131
time step continuity errors : sum local = 2.82833e-12, global = -2.88099e-14, cumulative = -3.74303e-12
ExecutionTime = 46.26 s  ClockTime = 48 s

Time = 6.2e-05

Courant Number mean: 0.000639641 max: 0.0110174
smoothSolver:  Solving for Ux, Initial residual = 0.0279623, Final residual = 7.27871e-06, No Iterations 5
smoothSolver:  Solving for Uy, Initial residual = 0.00417854, Final residual = 5.83424e-06, No Iterations 4
DICPCG:  Solving for p, Initial residual = 0.000125547, Final residual = 9.04549e-07, No Iterations 139
time step continuity errors : sum local = 2.71313e-12, global = -2.49601e-14, cumulative = -3.76799e-12
DICPCG:  Solving for p, Initial residual = 4.75483e-05, Final residual = 9.40427e-07, No Iterations 131
time step continuity errors : sum local = 2.79103e-12, global = -2.78762e-14, cumulative = -3.79587e-12
ExecutionTime = 46.89 s  ClockTime = 49 s

Time = 6.3e-05

Courant Number mean: 0.000646711 max: 0.0110894
smoothSolver:  Solving for Ux, Initial residual = 0.0274516, Final residual = 7.14534e-06, No Iterations 5
smoothSolver:  Solving for Uy, Initial residual = 0.00411428, Final residual = 5.74457e-06, No Iterations 4
DICPCG:  Solving for p, Initial residual = 0.00012307, Final residual = 8.92819e-07, No Iterations 139
time step continuity errors : sum local = 2.66676e-12, global = -2.37089e-14, cumulative = -3.81958e-12
DICPCG:  Solving for p, Initial residual = 4.71774e-05, Final residual = 9.319e-07, No Iterations 131
time step continuity errors : sum local = 2.7542e-12, global = -2.69886e-14, cumulative = -3.84656e-12
ExecutionTime = 47.68 s  ClockTime = 49 s

Time = 6.4e-05

Courant Number mean: 0.000653744 max: 0.0111603
smoothSolver:  Solving for Ux, Initial residual = 0.0269552, Final residual = 7.01572e-06, No Iterations 5
smoothSolver:  Solving for Uy, Initial residual = 0.00405176, Final residual = 5.65727e-06, No Iterations 4
DICPCG:  Solving for p, Initial residual = 0.000120696, Final residual = 8.8125e-07, No Iterations 139
time step continuity errors : sum local = 2.62122e-12, global = -2.25247e-14, cumulative = -3.86909e-12
DICPCG:  Solving for p, Initial residual = 4.68292e-05, Final residual = 9.23499e-07, No Iterations 131
time step continuity errors : sum local = 2.71799e-12, global = -2.61506e-14, cumulative = -3.89524e-12
ExecutionTime = 48.56 s  ClockTime = 50 s

Time = 6.5e-05

Courant Number mean: 0.000660739 max: 0.0112321
smoothSolver:  Solving for Ux, Initial residual = 0.0264728, Final residual = 6.88975e-06, No Iterations 5
smoothSolver:  Solving for Uy, Initial residual = 0.00399088, Final residual = 5.57225e-06, No Iterations 4
DICPCG:  Solving for p, Initial residual = 0.000118451, Final residual = 8.69878e-07, No Iterations 139
time step continuity errors : sum local = 2.57659e-12, global = -2.14064e-14, cumulative = -3.91665e-12
DICPCG:  Solving for p, Initial residual = 4.6496e-05, Final residual = 9.15162e-07, No Iterations 131
time step continuity errors : sum local = 2.68223e-12, global = -2.53604e-14, cumulative = -3.94201e-12
ExecutionTime = 49.22 s  ClockTime = 51 s

Time = 6.6e-05

Courant Number mean: 0.000667697 max: 0.0113023
smoothSolver:  Solving for Ux, Initial residual = 0.0260036, Final residual = 6.76726e-06, No Iterations 5
smoothSolver:  Solving for Uy, Initial residual = 0.0039316, Final residual = 5.48941e-06, No Iterations 4
DICPCG:  Solving for p, Initial residual = 0.000116308, Final residual = 8.58723e-07, No Iterations 139
time step continuity errors : sum local = 2.53293e-12, global = -2.03528e-14, cumulative = -3.96236e-12
DICPCG:  Solving for p, Initial residual = 4.61763e-05, Final residual = 9.06809e-07, No Iterations 131
time step continuity errors : sum local = 2.64667e-12, global = -2.46161e-14, cumulative = -3.98698e-12
ExecutionTime = 50.16 s  ClockTime = 52 s

Time = 6.7e-05

Courant Number mean: 0.000674617 max: 0.0113709
smoothSolver:  Solving for Ux, Initial residual = 0.0255472, Final residual = 6.64812e-06, No Iterations 5
smoothSolver:  Solving for Uy, Initial residual = 0.00387384, Final residual = 5.40869e-06, No Iterations 4
DICPCG:  Solving for p, Initial residual = 0.000114244, Final residual = 8.47814e-07, No Iterations 139
time step continuity errors : sum local = 2.49032e-12, global = -1.93627e-14, cumulative = -4.00634e-12
DICPCG:  Solving for p, Initial residual = 4.58744e-05, Final residual = 9.97519e-07, No Iterations 130
time step continuity errors : sum local = 2.89928e-12, global = -2.7997e-14, cumulative = -4.03434e-12
ExecutionTime = 50.98 s  ClockTime = 53 s

Time = 6.8e-05

Courant Number mean: 0.000681501 max: 0.0114381
smoothSolver:  Solving for Ux, Initial residual = 0.025103, Final residual = 6.53218e-06, No Iterations 5
smoothSolver:  Solving for Uy, Initial residual = 0.00381756, Final residual = 5.32999e-06, No Iterations 4
DICPCG:  Solving for p, Initial residual = 0.000112725, Final residual = 8.37138e-07, No Iterations 139
time step continuity errors : sum local = 2.4487e-12, global = -1.84355e-14, cumulative = -4.05277e-12
DICPCG:  Solving for p, Initial residual = 4.56534e-05, Final residual = 9.86442e-07, No Iterations 130
time step continuity errors : sum local = 2.85514e-12, global = -2.71403e-14, cumulative = -4.07991e-12
ExecutionTime = 51.63 s  ClockTime = 54 s

Time = 6.9e-05

Courant Number mean: 0.000688349 max: 0.0115038
smoothSolver:  Solving for Ux, Initial residual = 0.0246707, Final residual = 6.41934e-06, No Iterations 5
smoothSolver:  Solving for Uy, Initial residual = 0.00376267, Final residual = 5.25324e-06, No Iterations 4
DICPCG:  Solving for p, Initial residual = 0.000110417, Final residual = 8.26674e-07, No Iterations 139
time step continuity errors : sum local = 2.408e-12, global = -1.75691e-14, cumulative = -4.09748e-12
DICPCG:  Solving for p, Initial residual = 4.53005e-05, Final residual = 9.76613e-07, No Iterations 130
time step continuity errors : sum local = 2.81491e-12, global = -2.63698e-14, cumulative = -4.12385e-12
ExecutionTime = 52.31 s  ClockTime = 54 s

Time = 7e-05

Courant Number mean: 0.00069516 max: 0.0115681
smoothSolver:  Solving for Ux, Initial residual = 0.0242497, Final residual = 6.30948e-06, No Iterations 5
smoothSolver:  Solving for Uy, Initial residual = 0.00370916, Final residual = 5.17838e-06, No Iterations 4
DICPCG:  Solving for p, Initial residual = 0.000108601, Final residual = 9.92681e-07, No Iterations 138
time step continuity errors : sum local = 2.87949e-12, global = -8.65828e-15, cumulative = -4.13251e-12
DICPCG:  Solving for p, Initial residual = 4.50829e-05, Final residual = 9.66415e-07, No Iterations 130
time step continuity errors : sum local = 2.77392e-12, global = -2.56565e-14, cumulative = -4.15816e-12
ExecutionTime = 52.98 s  ClockTime = 55 s

Time = 7.1e-05

Courant Number mean: 0.000701934 max: 0.011631
smoothSolver:  Solving for Ux, Initial residual = 0.0238397, Final residual = 6.20249e-06, No Iterations 5
smoothSolver:  Solving for Uy, Initial residual = 0.00365695, Final residual = 5.10534e-06, No Iterations 4
DICPCG:  Solving for p, Initial residual = 0.000106873, Final residual = 9.78879e-07, No Iterations 138
time step continuity errors : sum local = 2.82761e-12, global = -8.01538e-15, cumulative = -4.16618e-12
DICPCG:  Solving for p, Initial residual = 4.49003e-05, Final residual = 9.56164e-07, No Iterations 130
time step continuity errors : sum local = 2.73306e-12, global = -2.49624e-14, cumulative = -4.19114e-12
ExecutionTime = 53.7 s  ClockTime = 56 s

Time = 7.2e-05

Courant Number mean: 0.000708673 max: 0.0116926
smoothSolver:  Solving for Ux, Initial residual = 0.0234403, Final residual = 6.09827e-06, No Iterations 5
smoothSolver:  Solving for Uy, Initial residual = 0.00360601, Final residual = 5.03412e-06, No Iterations 4
DICPCG:  Solving for p, Initial residual = 0.000105224, Final residual = 9.65581e-07, No Iterations 138
time step continuity errors : sum local = 2.77757e-12, global = -7.43734e-15, cumulative = -4.19858e-12
DICPCG:  Solving for p, Initial residual = 4.46247e-05, Final residual = 9.46061e-07, No Iterations 130
time step continuity errors : sum local = 2.69292e-12, global = -2.42947e-14, cumulative = -4.22287e-12
ExecutionTime = 54.36 s  ClockTime = 56 s

Time = 7.3e-05

Courant Number mean: 0.000715376 max: 0.0117528
smoothSolver:  Solving for Ux, Initial residual = 0.023051, Final residual = 5.99671e-06, No Iterations 5
smoothSolver:  Solving for Uy, Initial residual = 0.00355627, Final residual = 4.96463e-06, No Iterations 4
DICPCG:  Solving for p, Initial residual = 0.000103649, Final residual = 9.52432e-07, No Iterations 138
time step continuity errors : sum local = 2.72832e-12, global = -6.91221e-15, cumulative = -4.22979e-12
DICPCG:  Solving for p, Initial residual = 4.43694e-05, Final residual = 9.35957e-07, No Iterations 130
time step continuity errors : sum local = 2.65306e-12, global = -2.36593e-14, cumulative = -4.25345e-12
ExecutionTime = 54.93 s  ClockTime = 57 s

Time = 7.4e-05

Courant Number mean: 0.000722044 max: 0.0118117
smoothSolver:  Solving for Ux, Initial residual = 0.0226715, Final residual = 5.89772e-06, No Iterations 5
smoothSolver:  Solving for Uy, Initial residual = 0.00350772, Final residual = 4.89679e-06, No Iterations 4
DICPCG:  Solving for p, Initial residual = 0.000102154, Final residual = 9.39503e-07, No Iterations 138
time step continuity errors : sum local = 2.68006e-12, global = -6.43817e-15, cumulative = -4.25988e-12
DICPCG:  Solving for p, Initial residual = 4.41206e-05, Final residual = 9.25883e-07, No Iterations 130
time step continuity errors : sum local = 2.61358e-12, global = -2.30517e-14, cumulative = -4.28294e-12
ExecutionTime = 55.5 s  ClockTime = 58 s

Time = 7.5e-05

Courant Number mean: 0.000728676 max: 0.0118694
smoothSolver:  Solving for Ux, Initial residual = 0.0223015, Final residual = 5.8012e-06, No Iterations 5
smoothSolver:  Solving for Uy, Initial residual = 0.00346029, Final residual = 4.83054e-06, No Iterations 4
DICPCG:  Solving for p, Initial residual = 0.000100732, Final residual = 9.26726e-07, No Iterations 138
time step continuity errors : sum local = 2.63259e-12, global = -6.01242e-15, cumulative = -4.28895e-12
DICPCG:  Solving for p, Initial residual = 4.38781e-05, Final residual = 9.15789e-07, No Iterations 130
time step continuity errors : sum local = 2.57433e-12, global = -2.24691e-14, cumulative = -4.31142e-12
ExecutionTime = 56.1 s  ClockTime = 58 s

Time = 7.6e-05

Courant Number mean: 0.000735273 max: 0.0119259
smoothSolver:  Solving for Ux, Initial residual = 0.0219406, Final residual = 5.70707e-06, No Iterations 5
smoothSolver:  Solving for Uy, Initial residual = 0.00341395, Final residual = 4.76582e-06, No Iterations 4
DICPCG:  Solving for p, Initial residual = 9.93602e-05, Final residual = 9.14009e-07, No Iterations 138
time step continuity errors : sum local = 2.58565e-12, global = -5.63182e-15, cumulative = -4.31705e-12
DICPCG:  Solving for p, Initial residual = 4.36514e-05, Final residual = 9.05686e-07, No Iterations 130
time step continuity errors : sum local = 2.53533e-12, global = -2.19089e-14, cumulative = -4.33896e-12
ExecutionTime = 56.98 s  ClockTime = 59 s

Time = 7.7e-05

Courant Number mean: 0.000741835 max: 0.0119811
smoothSolver:  Solving for Ux, Initial residual = 0.0215885, Final residual = 5.61524e-06, No Iterations 5
smoothSolver:  Solving for Uy, Initial residual = 0.00336867, Final residual = 4.70258e-06, No Iterations 4
DICPCG:  Solving for p, Initial residual = 9.80364e-05, Final residual = 9.0138e-07, No Iterations 138
time step continuity errors : sum local = 2.5393e-12, global = -5.29296e-15, cumulative = -4.34425e-12
DICPCG:  Solving for p, Initial residual = 4.34319e-05, Final residual = 8.95587e-07, No Iterations 130
time step continuity errors : sum local = 2.49663e-12, global = -2.13688e-14, cumulative = -4.36562e-12
ExecutionTime = 57.78 s  ClockTime = 60 s

Time = 7.8e-05

Courant Number mean: 0.000748362 max: 0.0120352
smoothSolver:  Solving for Ux, Initial residual = 0.0212449, Final residual = 5.52564e-06, No Iterations 5
smoothSolver:  Solving for Uy, Initial residual = 0.0033244, Final residual = 4.64074e-06, No Iterations 4
DICPCG:  Solving for p, Initial residual = 9.67547e-05, Final residual = 8.8892e-07, No Iterations 138
time step continuity errors : sum local = 2.49377e-12, global = -4.9924e-15, cumulative = -4.37061e-12
DICPCG:  Solving for p, Initial residual = 4.32198e-05, Final residual = 8.85505e-07, No Iterations 130
time step continuity errors : sum local = 2.45826e-12, global = -2.08466e-14, cumulative = -4.39146e-12
ExecutionTime = 58.7 s  ClockTime = 61 s

Time = 7.9e-05

Courant Number mean: 0.000754855 max: 0.012088
smoothSolver:  Solving for Ux, Initial residual = 0.0209096, Final residual = 5.43821e-06, No Iterations 5
smoothSolver:  Solving for Uy, Initial residual = 0.00328112, Final residual = 4.5803e-06, No Iterations 4
DICPCG:  Solving for p, Initial residual = 9.55136e-05, Final residual = 8.76575e-07, No Iterations 138
time step continuity errors : sum local = 2.44889e-12, global = -4.72666e-15, cumulative = -4.39619e-12
DICPCG:  Solving for p, Initial residual = 4.30111e-05, Final residual = 8.75476e-07, No Iterations 130
time step continuity errors : sum local = 2.42031e-12, global = -2.03405e-14, cumulative = -4.41653e-12
ExecutionTime = 59.67 s  ClockTime = 62 s

Time = 8e-05

Courant Number mean: 0.000761313 max: 0.0121398
smoothSolver:  Solving for Ux, Initial residual = 0.0205823, Final residual = 5.35286e-06, No Iterations 5
smoothSolver:  Solving for Uy, Initial residual = 0.00323878, Final residual = 4.52117e-06, No Iterations 4
DICPCG:  Solving for p, Initial residual = 9.4323e-05, Final residual = 8.64424e-07, No Iterations 138
time step continuity errors : sum local = 2.4049e-12, global = -4.49231e-15, cumulative = -4.42102e-12
DICPCG:  Solving for p, Initial residual = 4.28071e-05, Final residual = 9.94706e-07, No Iterations 129
time step continuity errors : sum local = 2.7385e-12, global = -1.72316e-14, cumulative = -4.43825e-12
ExecutionTime = 60.49 s  ClockTime = 63 s

Time = 8.1e-05

Courant Number mean: 0.000767738 max: 0.0121905
smoothSolver:  Solving for Ux, Initial residual = 0.0202626, Final residual = 5.26952e-06, No Iterations 5
smoothSolver:  Solving for Uy, Initial residual = 0.00319736, Final residual = 4.46333e-06, No Iterations 4
DICPCG:  Solving for p, Initial residual = 9.37076e-05, Final residual = 9.98461e-07, No Iterations 137
time step continuity errors : sum local = 2.76624e-12, global = -3.07618e-16, cumulative = -4.43856e-12
DICPCG:  Solving for p, Initial residual = 4.26751e-05, Final residual = 9.81003e-07, No Iterations 129
time step continuity errors : sum local = 2.68956e-12, global = -1.67536e-14, cumulative = -4.45531e-12
ExecutionTime = 61.37 s  ClockTime = 64 s

Time = 8.2e-05

Courant Number mean: 0.000774128 max: 0.01224
smoothSolver:  Solving for Ux, Initial residual = 0.0199504, Final residual = 5.18814e-06, No Iterations 5
smoothSolver:  Solving for Uy, Initial residual = 0.00315683, Final residual = 4.40672e-06, No Iterations 4
DICPCG:  Solving for p, Initial residual = 9.22149e-05, Final residual = 9.83665e-07, No Iterations 137
time step continuity errors : sum local = 2.71392e-12, global = -1.11791e-16, cumulative = -4.45542e-12
DICPCG:  Solving for p, Initial residual = 4.25165e-05, Final residual = 9.68511e-07, No Iterations 129
time step continuity errors : sum local = 2.64429e-12, global = -1.62545e-14, cumulative = -4.47168e-12
ExecutionTime = 62.07 s  ClockTime = 64 s

Time = 8.3e-05

Courant Number mean: 0.000780484 max: 0.0122886
smoothSolver:  Solving for Ux, Initial residual = 0.0196455, Final residual = 5.10864e-06, No Iterations 5
smoothSolver:  Solving for Uy, Initial residual = 0.00311716, Final residual = 4.35132e-06, No Iterations 4
DICPCG:  Solving for p, Initial residual = 9.11751e-05, Final residual = 9.69371e-07, No Iterations 137
time step continuity errors : sum local = 2.66336e-12, global = 3.24343e-17, cumulative = -4.47165e-12
DICPCG:  Solving for p, Initial residual = 4.23153e-05, Final residual = 9.564e-07, No Iterations 129
time step continuity errors : sum local = 2.60038e-12, global = -1.58072e-14, cumulative = -4.48745e-12
ExecutionTime = 62.76 s  ClockTime = 65 s

Time = 8.4e-05

Courant Number mean: 0.000786807 max: 0.012336
smoothSolver:  Solving for Ux, Initial residual = 0.0193475, Final residual = 5.03098e-06, No Iterations 5
smoothSolver:  Solving for Uy, Initial residual = 0.00307832, Final residual = 4.29708e-06, No Iterations 4
DICPCG:  Solving for p, Initial residual = 9.01644e-05, Final residual = 9.5537e-07, No Iterations 137
time step continuity errors : sum local = 2.61398e-12, global = 1.60224e-16, cumulative = -4.48729e-12
DICPCG:  Solving for p, Initial residual = 4.21296e-05, Final residual = 9.44446e-07, No Iterations 129
time step continuity errors : sum local = 2.55722e-12, global = -1.53736e-14, cumulative = -4.50267e-12
ExecutionTime = 63.43 s  ClockTime = 66 s

Time = 8.5e-05

Courant Number mean: 0.000793096 max: 0.0123825
smoothSolver:  Solving for Ux, Initial residual = 0.0190564, Final residual = 4.95509e-06, No Iterations 5
smoothSolver:  Solving for Uy, Initial residual = 0.00304029, Final residual = 4.24396e-06, No Iterations 4
DICPCG:  Solving for p, Initial residual = 8.91932e-05, Final residual = 9.41695e-07, No Iterations 137
time step continuity errors : sum local = 2.56586e-12, global = 2.73459e-16, cumulative = -4.50239e-12
DICPCG:  Solving for p, Initial residual = 4.19513e-05, Final residual = 9.32614e-07, No Iterations 129
time step continuity errors : sum local = 2.5147e-12, global = -1.49534e-14, cumulative = -4.51735e-12
ExecutionTime = 64.08 s  ClockTime = 66 s

Time = 8.6e-05

Courant Number mean: 0.000799353 max: 0.012428
smoothSolver:  Solving for Ux, Initial residual = 0.0187717, Final residual = 4.88091e-06, No Iterations 5
smoothSolver:  Solving for Uy, Initial residual = 0.00300304, Final residual = 4.19194e-06, No Iterations 4
DICPCG:  Solving for p, Initial residual = 8.82591e-05, Final residual = 9.28349e-07, No Iterations 137
time step continuity errors : sum local = 2.51898e-12, global = 3.73839e-16, cumulative = -4.51697e-12
DICPCG:  Solving for p, Initial residual = 4.17801e-05, Final residual = 9.20907e-07, No Iterations 129
time step continuity errors : sum local = 2.47283e-12, global = -1.45455e-14, cumulative = -4.53152e-12
ExecutionTime = 64.76 s  ClockTime = 67 s

Time = 8.7e-05

Courant Number mean: 0.000805576 max: 0.0124725
smoothSolver:  Solving for Ux, Initial residual = 0.0184934, Final residual = 4.80837e-06, No Iterations 5
smoothSolver:  Solving for Uy, Initial residual = 0.00296656, Final residual = 4.14098e-06, No Iterations 4
DICPCG:  Solving for p, Initial residual = 8.73546e-05, Final residual = 9.15232e-07, No Iterations 137
time step continuity errors : sum local = 2.47308e-12, global = 4.63183e-16, cumulative = -4.53105e-12
DICPCG:  Solving for p, Initial residual = 4.16119e-05, Final residual = 9.09377e-07, No Iterations 129
time step continuity errors : sum local = 2.43175e-12, global = -1.41493e-14, cumulative = -4.5452e-12
ExecutionTime = 65.6 s  ClockTime = 68 s

Time = 8.8e-05

Courant Number mean: 0.000811766 max: 0.0125161
smoothSolver:  Solving for Ux, Initial residual = 0.0182211, Final residual = 4.73742e-06, No Iterations 5
smoothSolver:  Solving for Uy, Initial residual = 0.00293081, Final residual = 4.09105e-06, No Iterations 4
DICPCG:  Solving for p, Initial residual = 8.64831e-05, Final residual = 9.02415e-07, No Iterations 137
time step continuity errors : sum local = 2.42832e-12, global = 5.43033e-16, cumulative = -4.54466e-12
DICPCG:  Solving for p, Initial residual = 4.14466e-05, Final residual = 8.98067e-07, No Iterations 129
time step continuity errors : sum local = 2.39155e-12, global = -1.37641e-14, cumulative = -4.55842e-12
ExecutionTime = 66.2 s  ClockTime = 69 s

Time = 8.9e-05

Courant Number mean: 0.000817924 max: 0.0125587
smoothSolver:  Solving for Ux, Initial residual = 0.0179548, Final residual = 4.66803e-06, No Iterations 5
smoothSolver:  Solving for Uy, Initial residual = 0.00289578, Final residual = 4.04211e-06, No Iterations 4
DICPCG:  Solving for p, Initial residual = 8.56529e-05, Final residual = 9.97983e-07, No Iterations 136
time step continuity errors : sum local = 2.67434e-12, global = 1.18456e-14, cumulative = -4.54658e-12
DICPCG:  Solving for p, Initial residual = 4.13356e-05, Final residual = 9.96492e-07, No Iterations 128
time step continuity errors : sum local = 2.64265e-12, global = -1.0791e-14, cumulative = -4.55737e-12
ExecutionTime = 66.84 s  ClockTime = 69 s

Time = 9e-05

Courant Number mean: 0.000824049 max: 0.0126005
smoothSolver:  Solving for Ux, Initial residual = 0.0176942, Final residual = 4.60015e-06, No Iterations 5
smoothSolver:  Solving for Uy, Initial residual = 0.00286144, Final residual = 3.99415e-06, No Iterations 4
DICPCG:  Solving for p, Initial residual = 8.52885e-05, Final residual = 9.82752e-07, No Iterations 136
time step continuity errors : sum local = 2.6226e-12, global = 1.1577e-14, cumulative = -4.54579e-12
DICPCG:  Solving for p, Initial residual = 4.12532e-05, Final residual = 9.84243e-07, No Iterations 128
time step continuity errors : sum local = 2.59936e-12, global = -1.04376e-14, cumulative = -4.55623e-12
ExecutionTime = 67.55 s  ClockTime = 70 s

Time = 9.1e-05

Courant Number mean: 0.000830142 max: 0.0126419
smoothSolver:  Solving for Ux, Initial residual = 0.0174393, Final residual = 4.53374e-06, No Iterations 5
smoothSolver:  Solving for Uy, Initial residual = 0.00282778, Final residual = 3.94711e-06, No Iterations 4
DICPCG:  Solving for p, Initial residual = 8.41359e-05, Final residual = 9.68744e-07, No Iterations 136
time step continuity errors : sum local = 2.5745e-12, global = 1.13136e-14, cumulative = -4.54492e-12
DICPCG:  Solving for p, Initial residual = 4.1083e-05, Final residual = 9.7277e-07, No Iterations 128
time step continuity errors : sum local = 2.55842e-12, global = -1.00773e-14, cumulative = -4.55499e-12
ExecutionTime = 68.49 s  ClockTime = 71 s

Time = 9.2e-05

Courant Number mean: 0.000836202 max: 0.0126824
smoothSolver:  Solving for Ux, Initial residual = 0.0171898, Final residual = 4.46874e-06, No Iterations 5
smoothSolver:  Solving for Uy, Initial residual = 0.00279477, Final residual = 3.90099e-06, No Iterations 4
DICPCG:  Solving for p, Initial residual = 8.34114e-05, Final residual = 9.54875e-07, No Iterations 136
time step continuity errors : sum local = 2.52712e-12, global = 1.10517e-14, cumulative = -4.54394e-12
DICPCG:  Solving for p, Initial residual = 4.09387e-05, Final residual = 9.61467e-07, No Iterations 128
time step continuity errors : sum local = 2.51822e-12, global = -9.7358e-15, cumulative = -4.55368e-12
ExecutionTime = 69.31 s  ClockTime = 72 s

Time = 9.3e-05

Courant Number mean: 0.000842231 max: 0.012722
smoothSolver:  Solving for Ux, Initial residual = 0.0169456, Final residual = 4.40512e-06, No Iterations 5
smoothSolver:  Solving for Uy, Initial residual = 0.00276241, Final residual = 3.85576e-06, No Iterations 4
DICPCG:  Solving for p, Initial residual = 8.27456e-05, Final residual = 9.41283e-07, No Iterations 136
time step continuity errors : sum local = 2.48082e-12, global = 1.07933e-14, cumulative = -4.54289e-12
DICPCG:  Solving for p, Initial residual = 4.07984e-05, Final residual = 9.50461e-07, No Iterations 128
time step continuity errors : sum local = 2.4791e-12, global = -9.40367e-15, cumulative = -4.55229e-12
ExecutionTime = 70.14 s  ClockTime = 73 s

Time = 9.4e-05

Courant Number mean: 0.000848228 max: 0.0127608
smoothSolver:  Solving for Ux, Initial residual = 0.0167064, Final residual = 4.34283e-06, No Iterations 5
smoothSolver:  Solving for Uy, Initial residual = 0.00273066, Final residual = 3.81139e-06, No Iterations 4
DICPCG:  Solving for p, Initial residual = 8.21057e-05, Final residual = 9.27927e-07, No Iterations 136
time step continuity errors : sum local = 2.43549e-12, global = 1.05395e-14, cumulative = -4.54175e-12
DICPCG:  Solving for p, Initial residual = 4.06692e-05, Final residual = 9.39629e-07, No Iterations 128
time step continuity errors : sum local = 2.44071e-12, global = -9.08004e-15, cumulative = -4.55083e-12
ExecutionTime = 70.99 s  ClockTime = 74 s

Time = 9.5e-05

Courant Number mean: 0.000854193 max: 0.0127988
smoothSolver:  Solving for Ux, Initial residual = 0.0164723, Final residual = 4.28184e-06, No Iterations 5
smoothSolver:  Solving for Uy, Initial residual = 0.00269951, Final residual = 3.76785e-06, No Iterations 4
DICPCG:  Solving for p, Initial residual = 8.14843e-05, Final residual = 9.14851e-07, No Iterations 136
time step continuity errors : sum local = 2.39123e-12, global = 1.02902e-14, cumulative = -4.54054e-12
DICPCG:  Solving for p, Initial residual = 4.05437e-05, Final residual = 9.29045e-07, No Iterations 128
time step continuity errors : sum local = 2.40324e-12, global = -8.76456e-15, cumulative = -4.5493e-12
ExecutionTime = 71.81 s  ClockTime = 74 s

Time = 9.6e-05

Courant Number mean: 0.000860126 max: 0.012836
smoothSolver:  Solving for Ux, Initial residual = 0.0162429, Final residual = 4.22211e-06, No Iterations 5
smoothSolver:  Solving for Uy, Initial residual = 0.00266895, Final residual = 3.72512e-06, No Iterations 4
DICPCG:  Solving for p, Initial residual = 8.08935e-05, Final residual = 9.02009e-07, No Iterations 136
time step continuity errors : sum local = 2.3479e-12, global = 1.00457e-14, cumulative = -4.53926e-12
DICPCG:  Solving for p, Initial residual = 4.04256e-05, Final residual = 9.18739e-07, No Iterations 128
time step continuity errors : sum local = 2.36676e-12, global = -8.45673e-15, cumulative = -4.54771e-12
ExecutionTime = 72.45 s  ClockTime = 75 s

Time = 9.7e-05

Courant Number mean: 0.000866029 max: 0.0128723
smoothSolver:  Solving for Ux, Initial residual = 0.0160182, Final residual = 4.16359e-06, No Iterations 5
smoothSolver:  Solving for Uy, Initial residual = 0.00263896, Final residual = 3.68319e-06, No Iterations 4
DICPCG:  Solving for p, Initial residual = 8.03389e-05, Final residual = 8.89359e-07, No Iterations 136
time step continuity errors : sum local = 2.30541e-12, global = 9.80614e-15, cumulative = -4.53791e-12
DICPCG:  Solving for p, Initial residual = 4.03113e-05, Final residual = 9.08598e-07, No Iterations 128
time step continuity errors : sum local = 2.33098e-12, global = -8.15618e-15, cumulative = -4.54606e-12
ExecutionTime = 73.24 s  ClockTime = 76 s

Time = 9.8e-05

Courant Number mean: 0.0008719 max: 0.0129079
smoothSolver:  Solving for Ux, Initial residual = 0.0157981, Final residual = 4.10627e-06, No Iterations 5
smoothSolver:  Solving for Uy, Initial residual = 0.00260952, Final residual = 3.64202e-06, No Iterations 4
DICPCG:  Solving for p, Initial residual = 7.98005e-05, Final residual = 9.9304e-07, No Iterations 135
time step continuity errors : sum local = 2.56354e-12, global = 1.32523e-14, cumulative = -4.53281e-12
DICPCG:  Solving for p, Initial residual = 4.02729e-05, Final residual = 8.97192e-07, No Iterations 128
time step continuity errors : sum local = 2.29223e-12, global = -7.72736e-15, cumulative = -4.54054e-12
ExecutionTime = 73.9 s  ClockTime = 77 s

Time = 9.9e-05

Courant Number mean: 0.00087774 max: 0.0129428
smoothSolver:  Solving for Ux, Initial residual = 0.0155824, Final residual = 4.05011e-06, No Iterations 5
smoothSolver:  Solving for Uy, Initial residual = 0.00258063, Final residual = 3.60161e-06, No Iterations 4
DICPCG:  Solving for p, Initial residual = 7.93441e-05, Final residual = 9.79619e-07, No Iterations 135
time step continuity errors : sum local = 2.51846e-12, global = 1.30465e-14, cumulative = -4.52749e-12
DICPCG:  Solving for p, Initial residual = 4.02544e-05, Final residual = 8.87253e-07, No Iterations 128
time step continuity errors : sum local = 2.25749e-12, global = -7.42396e-15, cumulative = -4.53492e-12
ExecutionTime = 74.52 s  ClockTime = 77 s

Time = 0.0001

Courant Number mean: 0.00088355 max: 0.0129769
smoothSolver:  Solving for Ux, Initial residual = 0.0153711, Final residual = 3.99508e-06, No Iterations 5
smoothSolver:  Solving for Uy, Initial residual = 0.00255226, Final residual = 3.56192e-06, No Iterations 4
DICPCG:  Solving for p, Initial residual = 7.88251e-05, Final residual = 9.66835e-07, No Iterations 135
time step continuity errors : sum local = 2.47534e-12, global = 1.2849e-14, cumulative = -4.52207e-12
DICPCG:  Solving for p, Initial residual = 4.01426e-05, Final residual = 8.77845e-07, No Iterations 128
time step continuity errors : sum local = 2.22436e-12, global = -7.14086e-15, cumulative = -4.52921e-12
ExecutionTime = 75.25 s  ClockTime = 78 s

Time = 0.000101

Courant Number mean: 0.000889329 max: 0.0130103
smoothSolver:  Solving for Ux, Initial residual = 0.0151639, Final residual = 3.94114e-06, No Iterations 5
smoothSolver:  Solving for Uy, Initial residual = 0.0025244, Final residual = 3.52294e-06, No Iterations 4
DICPCG:  Solving for p, Initial residual = 7.83449e-05, Final residual = 9.54209e-07, No Iterations 135
time step continuity errors : sum local = 2.43294e-12, global = 1.26546e-14, cumulative = -4.51655e-12
DICPCG:  Solving for p, Initial residual = 4.00395e-05, Final residual = 8.68625e-07, No Iterations 128
time step continuity errors : sum local = 2.19193e-12, global = -6.86338e-15, cumulative = -4.52342e-12
ExecutionTime = 75.89 s  ClockTime = 79 s

Time = 0.000102

Courant Number mean: 0.000895077 max: 0.0130429
smoothSolver:  Solving for Ux, Initial residual = 0.0149608, Final residual = 3.88828e-06, No Iterations 5
smoothSolver:  Solving for Uy, Initial residual = 0.00249704, Final residual = 3.48465e-06, No Iterations 4
DICPCG:  Solving for p, Initial residual = 7.78797e-05, Final residual = 9.41753e-07, No Iterations 135
time step continuity errors : sum local = 2.39128e-12, global = 1.24635e-14, cumulative = -4.51095e-12
DICPCG:  Solving for p, Initial residual = 3.99367e-05, Final residual = 8.59607e-07, No Iterations 128
time step continuity errors : sum local = 2.16025e-12, global = -6.59165e-15, cumulative = -4.51755e-12
ExecutionTime = 76.56 s  ClockTime = 79 s

Time = 0.000103

Courant Number mean: 0.000900796 max: 0.0130749
smoothSolver:  Solving for Ux, Initial residual = 0.0147617, Final residual = 3.83644e-06, No Iterations 5
smoothSolver:  Solving for Uy, Initial residual = 0.00247016, Final residual = 3.44702e-06, No Iterations 4
DICPCG:  Solving for p, Initial residual = 7.74367e-05, Final residual = 9.29521e-07, No Iterations 135
time step continuity errors : sum local = 2.3505e-12, global = 1.22746e-14, cumulative = -4.50527e-12
DICPCG:  Solving for p, Initial residual = 3.98375e-05, Final residual = 8.50821e-07, No Iterations 128
time step continuity errors : sum local = 2.12937e-12, global = -6.32542e-15, cumulative = -4.5116e-12
ExecutionTime = 77.28 s  ClockTime = 80 s

Time = 0.000104

Courant Number mean: 0.000906484 max: 0.0131061
smoothSolver:  Solving for Ux, Initial residual = 0.0145665, Final residual = 3.78562e-06, No Iterations 5
smoothSolver:  Solving for Uy, Initial residual = 0.00244375, Final residual = 3.41006e-06, No Iterations 4
DICPCG:  Solving for p, Initial residual = 7.70078e-05, Final residual = 9.17497e-07, No Iterations 135
time step continuity errors : sum local = 2.31054e-12, global = 1.20872e-14, cumulative = -4.49951e-12
DICPCG:  Solving for p, Initial residual = 3.97394e-05, Final residual = 8.42205e-07, No Iterations 128
time step continuity errors : sum local = 2.09914e-12, global = -6.06441e-15, cumulative = -4.50557e-12
ExecutionTime = 77.93 s  ClockTime = 81 s

Time = 0.000105

Courant Number mean: 0.000912142 max: 0.0131367
smoothSolver:  Solving for Ux, Initial residual = 0.014375, Final residual = 3.73577e-06, No Iterations 5
smoothSolver:  Solving for Uy, Initial residual = 0.00241781, Final residual = 3.37372e-06, No Iterations 4
DICPCG:  Solving for p, Initial residual = 7.66038e-05, Final residual = 9.05636e-07, No Iterations 135
time step continuity errors : sum local = 2.27128e-12, global = 1.19002e-14, cumulative = -4.49367e-12
DICPCG:  Solving for p, Initial residual = 3.96423e-05, Final residual = 8.33776e-07, No Iterations 128
time step continuity errors : sum local = 2.06959e-12, global = -5.80846e-15, cumulative = -4.49948e-12
ExecutionTime = 78.54 s  ClockTime = 81 s

Time = 0.000106

Courant Number mean: 0.00091777 max: 0.0131667
smoothSolver:  Solving for Ux, Initial residual = 0.0141871, Final residual = 3.68686e-06, No Iterations 5
smoothSolver:  Solving for Uy, Initial residual = 0.00239231, Final residual = 3.33801e-06, No Iterations 4
DICPCG:  Solving for p, Initial residual = 7.62533e-05, Final residual = 8.93963e-07, No Iterations 135
time step continuity errors : sum local = 2.23278e-12, global = 1.17126e-14, cumulative = -4.48777e-12
DICPCG:  Solving for p, Initial residual = 3.95497e-05, Final residual = 8.25532e-07, No Iterations 128
time step continuity errors : sum local = 2.04071e-12, global = -5.55735e-15, cumulative = -4.49333e-12
ExecutionTime = 79.25 s  ClockTime = 82 s

Time = 0.000107

Courant Number mean: 0.000923369 max: 0.013196
smoothSolver:  Solving for Ux, Initial residual = 0.0140028, Final residual = 3.63889e-06, No Iterations 5
smoothSolver:  Solving for Uy, Initial residual = 0.00236725, Final residual = 3.3029e-06, No Iterations 4
DICPCG:  Solving for p, Initial residual = 7.59175e-05, Final residual = 8.82538e-07, No Iterations 135
time step continuity errors : sum local = 2.19518e-12, global = 1.15237e-14, cumulative = -4.4818e-12
DICPCG:  Solving for p, Initial residual = 3.94625e-05, Final residual = 9.99086e-07, No Iterations 127
time step continuity errors : sum local = 2.4596e-12, global = -9.12438e-15, cumulative = -4.49093e-12
ExecutionTime = 79.95 s  ClockTime = 83 s

Time = 0.000108

Courant Number mean: 0.000928938 max: 0.0132247
[...]
DICPCG:  Solving for p, Initial residual = 8.57375e-05, Final residual = 9.82573e-07, No Iterations 129
time step continuity errors : sum local = 4.19146e-13, global = -3.63704e-16, cumulative = -5.21778e-12
ExecutionTime = 529.46 s  ClockTime = 552 s

Time = 0.000745

Courant Number mean: 0.00188094 max: 0.015622
smoothSolver:  Solving for Ux, Initial residual = 0.000224547, Final residual = 8.08281e-06, No Iterations 2
smoothSolver:  Solving for Uy, Initial residual = 6.77448e-05, Final residual = 2.48622e-06, No Iterations 2
DICPCG:  Solving for p, Initial residual = 9.66426e-05, Final residual = 8.7735e-07, No Iterations 130
time step continuity errors : sum local = 3.75493e-13, global = -6.25829e-16, cumulative = -5.21841e-12
DICPCG:  Solving for p, Initial residual = 8.54616e-05, Final residual = 9.80222e-07, No Iterations 129
time step continuity errors : sum local = 4.1769e-13, global = -3.82359e-16, cumulative = -5.21879e-12
ExecutionTime = 530.17 s  ClockTime = 552 s

Time = 0.000746

Courant Number mean: 0.00188095 max: 0.0156202
smoothSolver:  Solving for Ux, Initial residual = 0.000223777, Final residual = 8.05481e-06, No Iterations 2
smoothSolver:  Solving for Uy, Initial residual = 6.75687e-05, Final residual = 2.47958e-06, No Iterations 2
DICPCG:  Solving for p, Initial residual = 9.63621e-05, Final residual = 8.75992e-07, No Iterations 130
time step continuity errors : sum local = 3.74494e-13, global = -6.12735e-16, cumulative = -5.2194e-12
DICPCG:  Solving for p, Initial residual = 8.51862e-05, Final residual = 9.77842e-07, No Iterations 129
time step continuity errors : sum local = 4.16227e-13, global = -4.00959e-16, cumulative = -5.2198e-12
ExecutionTime = 530.87 s  ClockTime = 553 s

Time = 0.000747

Courant Number mean: 0.00188096 max: 0.0156184
smoothSolver:  Solving for Ux, Initial residual = 0.000223012, Final residual = 8.02697e-06, No Iterations 2
smoothSolver:  Solving for Uy, Initial residual = 6.73951e-05, Final residual = 2.47303e-06, No Iterations 2
DICPCG:  Solving for p, Initial residual = 9.6082e-05, Final residual = 8.74623e-07, No Iterations 130
time step continuity errors : sum local = 3.73493e-13, global = -5.99644e-16, cumulative = -5.2204e-12
DICPCG:  Solving for p, Initial residual = 8.4911e-05, Final residual = 9.75434e-07, No Iterations 129
time step continuity errors : sum local = 4.14756e-13, global = -4.19505e-16, cumulative = -5.22082e-12
ExecutionTime = 531.55 s  ClockTime = 554 s

Time = 0.000748

Courant Number mean: 0.00188097 max: 0.0156165
smoothSolver:  Solving for Ux, Initial residual = 0.000222252, Final residual = 7.99935e-06, No Iterations 2
smoothSolver:  Solving for Uy, Initial residual = 6.72237e-05, Final residual = 2.46656e-06, No Iterations 2
DICPCG:  Solving for p, Initial residual = 9.58021e-05, Final residual = 8.73243e-07, No Iterations 130
time step continuity errors : sum local = 3.72491e-13, global = -5.86551e-16, cumulative = -5.22141e-12
DICPCG:  Solving for p, Initial residual = 8.46362e-05, Final residual = 9.72994e-07, No Iterations 129
time step continuity errors : sum local = 4.13276e-13, global = -4.37995e-16, cumulative = -5.22185e-12
ExecutionTime = 532.23 s  ClockTime = 554 s

Time = 0.000749

Courant Number mean: 0.00188098 max: 0.0156147
smoothSolver:  Solving for Ux, Initial residual = 0.000221498, Final residual = 7.97197e-06, No Iterations 2
smoothSolver:  Solving for Uy, Initial residual = 6.70547e-05, Final residual = 2.46018e-06, No Iterations 2
DICPCG:  Solving for p, Initial residual = 9.55224e-05, Final residual = 8.71849e-07, No Iterations 130
time step continuity errors : sum local = 3.71487e-13, global = -5.73462e-16, cumulative = -5.22242e-12
DICPCG:  Solving for p, Initial residual = 8.43618e-05, Final residual = 9.70521e-07, No Iterations 129
time step continuity errors : sum local = 4.11787e-13, global = -4.56433e-16, cumulative = -5.22288e-12
ExecutionTime = 533.09 s  ClockTime = 555 s

Time = 0.00075

Courant Number mean: 0.00188099 max: 0.0156129
smoothSolver:  Solving for Ux, Initial residual = 0.00022075, Final residual = 7.94473e-06, No Iterations 2
smoothSolver:  Solving for Uy, Initial residual = 6.6888e-05, Final residual = 2.45388e-06, No Iterations 2
DICPCG:  Solving for p, Initial residual = 9.5243e-05, Final residual = 8.70443e-07, No Iterations 130
time step continuity errors : sum local = 3.7048e-13, global = -5.60377e-16, cumulative = -5.22344e-12
DICPCG:  Solving for p, Initial residual = 8.40878e-05, Final residual = 9.68013e-07, No Iterations 129
time step continuity errors : sum local = 4.10287e-13, global = -4.74815e-16, cumulative = -5.22391e-12
ExecutionTime = 533.91 s  ClockTime = 556 s

Time = 0.000751

Courant Number mean: 0.00188099 max: 0.0156111
smoothSolver:  Solving for Ux, Initial residual = 0.000220005, Final residual = 7.91762e-06, No Iterations 2
smoothSolver:  Solving for Uy, Initial residual = 6.67239e-05, Final residual = 2.44767e-06, No Iterations 2
DICPCG:  Solving for p, Initial residual = 9.4964e-05, Final residual = 8.69024e-07, No Iterations 130
time step continuity errors : sum local = 3.69472e-13, global = -5.473e-16, cumulative = -5.22446e-12
DICPCG:  Solving for p, Initial residual = 8.38141e-05, Final residual = 9.65469e-07, No Iterations 129
time step continuity errors : sum local = 4.08777e-13, global = -4.93141e-16, cumulative = -5.22495e-12
ExecutionTime = 534.74 s  ClockTime = 557 s

Time = 0.000752

Courant Number mean: 0.001881 max: 0.0156093
smoothSolver:  Solving for Ux, Initial residual = 0.000219264, Final residual = 7.89065e-06, No Iterations 2
smoothSolver:  Solving for Uy, Initial residual = 6.6562e-05, Final residual = 2.44155e-06, No Iterations 2
DICPCG:  Solving for p, Initial residual = 9.46857e-05, Final residual = 8.67593e-07, No Iterations 130
time step continuity errors : sum local = 3.68462e-13, global = -5.34236e-16, cumulative = -5.22549e-12
DICPCG:  Solving for p, Initial residual = 8.35407e-05, Final residual = 9.62891e-07, No Iterations 129
time step continuity errors : sum local = 4.07257e-13, global = -5.11411e-16, cumulative = -5.226e-12
ExecutionTime = 535.53 s  ClockTime = 558 s

Time = 0.000753

Courant Number mean: 0.001881 max: 0.0156074
smoothSolver:  Solving for Ux, Initial residual = 0.000218526, Final residual = 7.8638e-06, No Iterations 2
smoothSolver:  Solving for Uy, Initial residual = 6.64027e-05, Final residual = 2.43551e-06, No Iterations 2
DICPCG:  Solving for p, Initial residual = 9.44078e-05, Final residual = 8.66149e-07, No Iterations 130
time step continuity errors : sum local = 3.6745e-13, global = -5.21184e-16, cumulative = -5.22652e-12
DICPCG:  Solving for p, Initial residual = 8.32678e-05, Final residual = 9.60276e-07, No Iterations 129
time step continuity errors : sum local = 4.05725e-13, global = -5.29624e-16, cumulative = -5.22705e-12
ExecutionTime = 536.36 s  ClockTime = 559 s

Time = 0.000754

Courant Number mean: 0.001881 max: 0.0156056
smoothSolver:  Solving for Ux, Initial residual = 0.000217792, Final residual = 7.83708e-06, No Iterations 2
smoothSolver:  Solving for Uy, Initial residual = 6.62459e-05, Final residual = 2.42957e-06, No Iterations 2
DICPCG:  Solving for p, Initial residual = 9.41303e-05, Final residual = 8.6469e-07, No Iterations 130
time step continuity errors : sum local = 3.66435e-13, global = -5.08151e-16, cumulative = -5.22756e-12
DICPCG:  Solving for p, Initial residual = 8.29952e-05, Final residual = 9.57621e-07, No Iterations 129
time step continuity errors : sum local = 4.04181e-13, global = -5.4778e-16, cumulative = -5.22811e-12
ExecutionTime = 537.18 s  ClockTime = 560 s

Time = 0.000755

Courant Number mean: 0.001881 max: 0.0156037
smoothSolver:  Solving for Ux, Initial residual = 0.000217061, Final residual = 7.81049e-06, No Iterations 2
smoothSolver:  Solving for Uy, Initial residual = 6.60916e-05, Final residual = 2.42372e-06, No Iterations 2
DICPCG:  Solving for p, Initial residual = 9.3853e-05, Final residual = 8.63218e-07, No Iterations 130
time step continuity errors : sum local = 3.65417e-13, global = -4.95151e-16, cumulative = -5.2286e-12
DICPCG:  Solving for p, Initial residual = 8.2723e-05, Final residual = 9.54927e-07, No Iterations 129
time step continuity errors : sum local = 4.02625e-13, global = -5.65875e-16, cumulative = -5.22917e-12
ExecutionTime = 538 s  ClockTime = 561 s

Time = 0.000756

Courant Number mean: 0.001881 max: 0.0156019
smoothSolver:  Solving for Ux, Initial residual = 0.000216335, Final residual = 7.78406e-06, No Iterations 2
smoothSolver:  Solving for Uy, Initial residual = 6.59398e-05, Final residual = 2.41796e-06, No Iterations 2
DICPCG:  Solving for p, Initial residual = 9.35761e-05, Final residual = 8.61731e-07, No Iterations 130
time step continuity errors : sum local = 3.64397e-13, global = -4.82193e-16, cumulative = -5.22965e-12
DICPCG:  Solving for p, Initial residual = 8.24513e-05, Final residual = 9.52194e-07, No Iterations 129
time step continuity errors : sum local = 4.01057e-13, global = -5.83912e-16, cumulative = -5.23023e-12
ExecutionTime = 538.83 s  ClockTime = 562 s

Time = 0.000757

Courant Number mean: 0.001881 max: 0.0156001
smoothSolver:  Solving for Ux, Initial residual = 0.000215614, Final residual = 7.75789e-06, No Iterations 2
smoothSolver:  Solving for Uy, Initial residual = 6.57905e-05, Final residual = 2.41229e-06, No Iterations 2
DICPCG:  Solving for p, Initial residual = 9.32994e-05, Final residual = 8.6023e-07, No Iterations 130
time step continuity errors : sum local = 3.63373e-13, global = -4.69298e-16, cumulative = -5.2307e-12
DICPCG:  Solving for p, Initial residual = 8.21806e-05, Final residual = 9.49418e-07, No Iterations 129
time step continuity errors : sum local = 3.99475e-13, global = -6.01883e-16, cumulative = -5.2313e-12
ExecutionTime = 539.66 s  ClockTime = 563 s

Time = 0.000758

Courant Number mean: 0.001881 max: 0.0155982
smoothSolver:  Solving for Ux, Initial residual = 0.0002149, Final residual = 7.73191e-06, No Iterations 2
smoothSolver:  Solving for Uy, Initial residual = 6.56438e-05, Final residual = 2.40671e-06, No Iterations 2
DICPCG:  Solving for p, Initial residual = 9.30244e-05, Final residual = 8.58715e-07, No Iterations 130
time step continuity errors : sum local = 3.62348e-13, global = -4.56498e-16, cumulative = -5.23176e-12
DICPCG:  Solving for p, Initial residual = 8.1911e-05, Final residual = 9.46604e-07, No Iterations 129
time step continuity errors : sum local = 3.97882e-13, global = -6.1978e-16, cumulative = -5.23238e-12
ExecutionTime = 540.44 s  ClockTime = 564 s

Time = 0.000759

Courant Number mean: 0.001881 max: 0.0155963
smoothSolver:  Solving for Ux, Initial residual = 0.00021419, Final residual = 7.70606e-06, No Iterations 2
smoothSolver:  Solving for Uy, Initial residual = 6.54996e-05, Final residual = 2.40122e-06, No Iterations 2
DICPCG:  Solving for p, Initial residual = 9.27506e-05, Final residual = 8.57186e-07, No Iterations 130
time step continuity errors : sum local = 3.6132e-13, global = -4.4385e-16, cumulative = -5.23282e-12
DICPCG:  Solving for p, Initial residual = 8.16424e-05, Final residual = 9.43743e-07, No Iterations 129
time step continuity errors : sum local = 3.96274e-13, global = -6.37605e-16, cumulative = -5.23346e-12
ExecutionTime = 541.23 s  ClockTime = 565 s

Time = 0.00076

Courant Number mean: 0.00188099 max: 0.0155945
smoothSolver:  Solving for Ux, Initial residual = 0.000213483, Final residual = 7.68033e-06, No Iterations 2
smoothSolver:  Solving for Uy, Initial residual = 6.53579e-05, Final residual = 2.39583e-06, No Iterations 2
DICPCG:  Solving for p, Initial residual = 9.2478e-05, Final residual = 8.55644e-07, No Iterations 130
time step continuity errors : sum local = 3.60289e-13, global = -4.31442e-16, cumulative = -5.23389e-12
DICPCG:  Solving for p, Initial residual = 8.13745e-05, Final residual = 9.40834e-07, No Iterations 129
time step continuity errors : sum local = 3.94649e-13, global = -6.55341e-16, cumulative = -5.23455e-12
ExecutionTime = 542 s  ClockTime = 566 s

Time = 0.000761

Courant Number mean: 0.00188099 max: 0.0155926
smoothSolver:  Solving for Ux, Initial residual = 0.000212779, Final residual = 7.65472e-06, No Iterations 2
smoothSolver:  Solving for Uy, Initial residual = 6.5219e-05, Final residual = 2.39053e-06, No Iterations 2
DICPCG:  Solving for p, Initial residual = 9.22069e-05, Final residual = 8.54104e-07, No Iterations 130
time step continuity errors : sum local = 3.59262e-13, global = -4.25017e-16, cumulative = -5.23497e-12
DICPCG:  Solving for p, Initial residual = 8.1108e-05, Final residual = 9.37908e-07, No Iterations 129
time step continuity errors : sum local = 3.93023e-13, global = -6.73297e-16, cumulative = -5.23565e-12
ExecutionTime = 542.72 s  ClockTime = 566 s

Time = 0.000762

Courant Number mean: 0.00188098 max: 0.0155908
smoothSolver:  Solving for Ux, Initial residual = 0.000212079, Final residual = 7.62923e-06, No Iterations 2
smoothSolver:  Solving for Uy, Initial residual = 6.50828e-05, Final residual = 2.38533e-06, No Iterations 2
DICPCG:  Solving for p, Initial residual = 9.19407e-05, Final residual = 8.52588e-07, No Iterations 130
time step continuity errors : sum local = 3.58249e-13, global = -4.27586e-16, cumulative = -5.23607e-12
DICPCG:  Solving for p, Initial residual = 8.08436e-05, Final residual = 9.34997e-07, No Iterations 129
time step continuity errors : sum local = 3.91406e-13, global = -6.91533e-16, cumulative = -5.23677e-12
ExecutionTime = 543.44 s  ClockTime = 567 s

Time = 0.000763

Courant Number mean: 0.00188098 max: 0.0155889
smoothSolver:  Solving for Ux, Initial residual = 0.000211382, Final residual = 7.60386e-06, No Iterations 2
smoothSolver:  Solving for Uy, Initial residual = 6.4949e-05, Final residual = 2.38022e-06, No Iterations 2
DICPCG:  Solving for p, Initial residual = 9.16839e-05, Final residual = 8.50961e-07, No Iterations 130
time step continuity errors : sum local = 3.57192e-13, global = -4.07629e-16, cumulative = -5.23717e-12
DICPCG:  Solving for p, Initial residual = 8.05776e-05, Final residual = 9.31854e-07, No Iterations 129
time step continuity errors : sum local = 3.89698e-13, global = -7.07896e-16, cumulative = -5.23788e-12
ExecutionTime = 544.16 s  ClockTime = 568 s

Time = 0.000764

Courant Number mean: 0.00188097 max: 0.015587
smoothSolver:  Solving for Ux, Initial residual = 0.000210688, Final residual = 7.57861e-06, No Iterations 2
smoothSolver:  Solving for Uy, Initial residual = 6.4818e-05, Final residual = 2.3752e-06, No Iterations 2
DICPCG:  Solving for p, Initial residual = 9.14242e-05, Final residual = 8.49369e-07, No Iterations 130
time step continuity errors : sum local = 3.56153e-13, global = -4.01722e-16, cumulative = -5.23828e-12
DICPCG:  Solving for p, Initial residual = 8.0317e-05, Final residual = 9.28763e-07, No Iterations 129
time step continuity errors : sum local = 3.88015e-13, global = -7.25081e-16, cumulative = -5.23901e-12
ExecutionTime = 544.93 s  ClockTime = 569 s

Time = 0.000765

Courant Number mean: 0.00188096 max: 0.0155851
smoothSolver:  Solving for Ux, Initial residual = 0.000209998, Final residual = 7.5535e-06, No Iterations 2
smoothSolver:  Solving for Uy, Initial residual = 6.46895e-05, Final residual = 2.37029e-06, No Iterations 2
DICPCG:  Solving for p, Initial residual = 9.11161e-05, Final residual = 8.47744e-07, No Iterations 130
time step continuity errors : sum local = 3.55104e-13, global = -3.41145e-16, cumulative = -5.23935e-12
DICPCG:  Solving for p, Initial residual = 8.00518e-05, Final residual = 9.25571e-07, No Iterations 129
time step continuity errors : sum local = 3.86295e-13, global = -7.45912e-16, cumulative = -5.2401e-12
ExecutionTime = 545.73 s  ClockTime = 570 s

Time = 0.000766

Courant Number mean: 0.00188095 max: 0.0155833
smoothSolver:  Solving for Ux, Initial residual = 0.000209314, Final residual = 7.52871e-06, No Iterations 2
smoothSolver:  Solving for Uy, Initial residual = 6.45637e-05, Final residual = 2.36546e-06, No Iterations 2
DICPCG:  Solving for p, Initial residual = 9.08713e-05, Final residual = 8.4615e-07, No Iterations 130
time step continuity errors : sum local = 3.54071e-13, global = -3.08685e-16, cumulative = -5.2404e-12
DICPCG:  Solving for p, Initial residual = 7.98024e-05, Final residual = 9.22448e-07, No Iterations 129
time step continuity errors : sum local = 3.84608e-13, global = -7.66252e-16, cumulative = -5.24117e-12
ExecutionTime = 546.49 s  ClockTime = 571 s

Time = 0.000767

Courant Number mean: 0.00188094 max: 0.0155814
smoothSolver:  Solving for Ux, Initial residual = 0.000208637, Final residual = 7.50405e-06, No Iterations 2
smoothSolver:  Solving for Uy, Initial residual = 6.44406e-05, Final residual = 2.36074e-06, No Iterations 2
DICPCG:  Solving for p, Initial residual = 9.05677e-05, Final residual = 8.4439e-07, No Iterations 130
time step continuity errors : sum local = 3.52972e-13, global = -3.39919e-16, cumulative = -5.24151e-12
DICPCG:  Solving for p, Initial residual = 7.95243e-05, Final residual = 9.19062e-07, No Iterations 129
time step continuity errors : sum local = 3.82817e-13, global = -7.81546e-16, cumulative = -5.24229e-12
ExecutionTime = 547.18 s  ClockTime = 571 s

Time = 0.000768

Courant Number mean: 0.00188093 max: 0.0155795
smoothSolver:  Solving for Ux, Initial residual = 0.000207963, Final residual = 7.4795e-06, No Iterations 2
smoothSolver:  Solving for Uy, Initial residual = 6.43201e-05, Final residual = 2.3561e-06, No Iterations 2
DICPCG:  Solving for p, Initial residual = 9.02924e-05, Final residual = 8.4273e-07, No Iterations 130
time step continuity errors : sum local = 3.51917e-13, global = -3.24101e-16, cumulative = -5.24262e-12
DICPCG:  Solving for p, Initial residual = 7.9263e-05, Final residual = 9.157e-07, No Iterations 129
time step continuity errors : sum local = 3.81039e-13, global = -7.98674e-16, cumulative = -5.24341e-12
ExecutionTime = 547.92 s  ClockTime = 572 s

Time = 0.000769

Courant Number mean: 0.00188092 max: 0.0155776
smoothSolver:  Solving for Ux, Initial residual = 0.000207292, Final residual = 7.45507e-06, No Iterations 2
smoothSolver:  Solving for Uy, Initial residual = 6.42022e-05, Final residual = 2.35156e-06, No Iterations 2
DICPCG:  Solving for p, Initial residual = 9.0021e-05, Final residual = 8.41031e-07, No Iterations 130
time step continuity errors : sum local = 3.5085e-13, global = -3.11981e-16, cumulative = -5.24373e-12
DICPCG:  Solving for p, Initial residual = 7.90019e-05, Final residual = 9.12263e-07, No Iterations 129
time step continuity errors : sum local = 3.79236e-13, global = -8.16053e-16, cumulative = -5.24454e-12
ExecutionTime = 548.66 s  ClockTime = 573 s

Time = 0.00077

Courant Number mean: 0.0018809 max: 0.0155757
smoothSolver:  Solving for Ux, Initial residual = 0.000206623, Final residual = 7.43075e-06, No Iterations 2
smoothSolver:  Solving for Uy, Initial residual = 6.4087e-05, Final residual = 2.34712e-06, No Iterations 2
DICPCG:  Solving for p, Initial residual = 8.98391e-05, Final residual = 8.39805e-07, No Iterations 130
time step continuity errors : sum local = 3.49983e-13, global = -2.11832e-16, cumulative = -5.24475e-12
DICPCG:  Solving for p, Initial residual = 7.87929e-05, Final residual = 9.0928e-07, No Iterations 129
time step continuity errors : sum local = 3.77625e-13, global = -8.40174e-16, cumulative = -5.2456e-12
ExecutionTime = 549.35 s  ClockTime = 574 s

Time = 0.000771

Courant Number mean: 0.00188089 max: 0.0155738
smoothSolver:  Solving for Ux, Initial residual = 0.000205958, Final residual = 7.40654e-06, No Iterations 2
smoothSolver:  Solving for Uy, Initial residual = 6.39745e-05, Final residual = 2.34278e-06, No Iterations 2
DICPCG:  Solving for p, Initial residual = 8.95056e-05, Final residual = 8.37525e-07, No Iterations 130
time step continuity errors : sum local = 3.4868e-13, global = -3.0349e-16, cumulative = -5.2459e-12
